EMPTY MOLECULE DESCRIBING GYPSUM PARAMETERS
     RDKit          2D

  0  0  0  0  0  0  0  0  0  0999 V2000
M  END
>  <source>  (1) 
sample_molecules.smi

>  <output_file>  (1) 
output.sdf

>  <separate_output_files>  (1) 
False

>  <num_processors>  (1) 
-1

>  <start_time>  (1) 
2018-11-26 16:29:58.200937

>  <end_time>  (1) 
2018-11-26 16:29:58.835549

>  <run_time>  (1) 
0:00:00.634612

>  <min_ph>  (1) 
6.4

>  <max_ph>  (1) 
8.4

>  <ph_std_dev>  (1) 
1.0

>  <thoroughness>  (1) 
3

>  <max_variants_per_compound>  (1) 
5

>  <second_embed>  (1) 
False

>  <2d_output_only>  (1) 
False

>  <skip_optimize_geometry>  (1) 
False

>  <skip_alternate_ring_conformations>  (1) 
False

>  <skip_adding_hydrogen>  (1) 
False

>  <skip_making_tautomers>  (1) 
False

>  <skip_ennumerate_chiral_mol>  (1) 
False

>  <skip_ennumerate_double_bonds>  (1) 
False

>  <multithread_mode>  (1) 
multithreading

>  <Parallelizer>  (1) 
<gypsum.parallelizer.Parallelizer object at 0x7fc1f6e6ff60>

$$$$
non-aromatic puckers
     RDKit          3D

 22 23  0  0  0  0  0  0  0  0999 V2000
    2.7958   -0.7294   -0.0383 C   0  0  0  0  0  0  0  0  0  0  0  0
    2.8056    0.6525   -0.2309 C   0  0  0  0  0  0  0  0  0  0  0  0
    1.6038    1.3631   -0.2675 C   0  0  0  0  0  0  0  0  0  0  0  0
    0.3780    0.6982   -0.1018 C   0  0  0  0  0  0  0  0  0  0  0  0
    0.3668   -0.7084    0.0660 C   0  0  0  0  0  0  0  0  0  0  0  0
    1.5841   -1.4069    0.1143 C   0  0  0  0  0  0  0  0  0  0  0  0
   -0.9190   -1.4653    0.3041 C   0  0  0  0  0  0  0  0  0  0  0  0
   -2.1545   -0.6882   -0.1598 C   0  0  0  0  0  0  0  0  0  0  0  0
   -2.1096    0.7467    0.3647 C   0  0  0  0  0  0  0  0  0  0  0  0
   -0.9034    1.4904   -0.2165 C   0  0  0  0  0  0  0  0  0  0  0  0
    3.7290   -1.2768   -0.0051 H   0  0  0  0  0  0  0  0  0  0  0  0
    3.7459    1.1742   -0.3542 H   0  0  0  0  0  0  0  0  0  0  0  0
    1.6277    2.4340   -0.4281 H   0  0  0  0  0  0  0  0  0  0  0  0
    1.5940   -2.4782    0.2733 H   0  0  0  0  0  0  0  0  0  0  0  0
   -1.0078   -1.6756    1.3921 H   0  0  0  0  0  0  0  0  0  0  0  0
   -0.8898   -2.4392   -0.2315 H   0  0  0  0  0  0  0  0  0  0  0  0
   -3.0694   -1.1928    0.2189 H   0  0  0  0  0  0  0  0  0  0  0  0
   -2.1998   -0.6817   -1.2714 H   0  0  0  0  0  0  0  0  0  0  0  0
   -3.0425    1.2767    0.0748 H   0  0  0  0  0  0  0  0  0  0  0  0
   -2.0483    0.7400    1.4756 H   0  0  0  0  0  0  0  0  0  0  0  0
   -0.7963    2.4623    0.3126 H   0  0  0  0  0  0  0  0  0  0  0  0
   -1.0903    1.7044   -1.2913 H   0  0  0  0  0  0  0  0  0  0  0  0
  1  2  2  0
  2  3  1  0
  3  4  2  0
  4  5  1  0
  5  6  2  0
  5  7  1  0
  7  8  1  0
  8  9  1  0
  9 10  1  0
  6  1  1  0
 10  4  1  0
  1 11  1  0
  2 12  1  0
  3 13  1  0
  6 14  1  0
  7 15  1  0
  7 16  1  0
  8 17  1  0
  8 18  1  0
  9 19  1  0
  9 20  1  0
 10 21  1  0
 10 22  1  0
M  END
>  <UniqueID>  (2) 
1

>  <SMILES>  (2) 
c1ccc2c(c1)CCCC2

>  <Energy>  (2) 
20.582423813791376

>  <Genealogy>  (2) 
c1ccc2c(c1)CCCC2 (3D coordinates assigned)
c1ccc2c(c1)CCCC2 (nonaromatic ring conformer: 20.582423813791376 kcal/mol)

$$$$
non-aromatic puckers
     RDKit          3D

 22 23  0  0  0  0  0  0  0  0999 V2000
    2.7937   -0.7341   -0.0820 C   0  0  0  0  0  0  0  0  0  0  0  0
    2.8077    0.6572   -0.1872 C   0  0  0  0  0  0  0  0  0  0  0  0
    1.6079    1.3720   -0.1841 C   0  0  0  0  0  0  0  0  0  0  0  0
    0.3788    0.7000   -0.0852 C   0  0  0  0  0  0  0  0  0  0  0  0
    0.3659   -0.7102    0.0494 C   0  0  0  0  0  0  0  0  0  0  0  0
    1.5800   -1.4158    0.0308 C   0  0  0  0  0  0  0  0  0  0  0  0
   -0.9289   -1.4868    0.1031 C   0  0  0  0  0  0  0  0  0  0  0  0
   -2.1213   -0.6164    0.5111 C   0  0  0  0  0  0  0  0  0  0  0  0
   -2.1428    0.6750   -0.3061 C   0  0  0  0  0  0  0  0  0  0  0  0
   -0.8935    1.5119   -0.0155 C   0  0  0  0  0  0  0  0  0  0  0  0
    3.7248   -1.2859   -0.0901 H   0  0  0  0  0  0  0  0  0  0  0  0
    3.7501    1.1833   -0.2692 H   0  0  0  0  0  0  0  0  0  0  0  0
    1.6362    2.4524   -0.2561 H   0  0  0  0  0  0  0  0  0  0  0  0
    1.5855   -2.4966    0.1012 H   0  0  0  0  0  0  0  0  0  0  0  0
   -1.1214   -1.9209   -0.9021 H   0  0  0  0  0  0  0  0  0  0  0  0
   -0.8374   -2.3260    0.8266 H   0  0  0  0  0  0  0  0  0  0  0  0
   -3.0635   -1.1800    0.3386 H   0  0  0  0  0  0  0  0  0  0  0  0
   -2.0579   -0.3752    1.5953 H   0  0  0  0  0  0  0  0  0  0  0  0
   -3.0484    1.2639   -0.0448 H   0  0  0  0  0  0  0  0  0  0  0  0
   -2.1903    0.4335   -1.3911 H   0  0  0  0  0  0  0  0  0  0  0  0
   -0.9767    1.9497    1.0029 H   0  0  0  0  0  0  0  0  0  0  0  0
   -0.8487    2.3492   -0.7456 H   0  0  0  0  0  0  0  0  0  0  0  0
  1  2  2  0
  2  3  1  0
  3  4  2  0
  4  5  1  0
  5  6  2  0
  5  7  1  0
  7  8  1  0
  8  9  1  0
  9 10  1  0
  6  1  1  0
 10  4  1  0
  1 11  1  0
  2 12  1  0
  3 13  1  0
  6 14  1  0
  7 15  1  0
  7 16  1  0
  8 17  1  0
  8 18  1  0
  9 19  1  0
  9 20  1  0
 10 21  1  0
 10 22  1  0
M  END
>  <UniqueID>  (3) 
2

>  <SMILES>  (3) 
c1ccc2c(c1)CCCC2

>  <Energy>  (3) 
20.582423814676574

>  <Genealogy>  (3) 
c1ccc2c(c1)CCCC2 (3D coordinates assigned)
c1ccc2c(c1)CCCC2 (nonaromatic ring conformer: 20.582423814676574 kcal/mol)

$$$$
non-aromatic puckers
     RDKit          3D

 22 23  0  0  0  0  0  0  0  0999 V2000
    2.7541   -0.7492   -0.2499 C   0  0  0  0  0  0  0  0  0  0  0  0
    2.7666    0.6424   -0.3852 C   0  0  0  0  0  0  0  0  0  0  0  0
    1.5877    1.3746   -0.2150 C   0  0  0  0  0  0  0  0  0  0  0  0
    0.3871    0.7115    0.0803 C   0  0  0  0  0  0  0  0  0  0  0  0
    0.3730   -0.6868    0.2132 C   0  0  0  0  0  0  0  0  0  0  0  0
    1.5628   -1.4140    0.0571 C   0  0  0  0  0  0  0  0  0  0  0  0
   -0.9112   -1.3647    0.6104 C   0  0  0  0  0  0  0  0  0  0  0  0
   -2.1330   -0.7713   -0.1240 C   0  0  0  0  0  0  0  0  0  0  0  0
   -2.0429    0.7452   -0.4383 C   0  0  0  0  0  0  0  0  0  0  0  0
   -0.8967    1.4651    0.2858 C   0  0  0  0  0  0  0  0  0  0  0  0
    3.6702   -1.3121   -0.3746 H   0  0  0  0  0  0  0  0  0  0  0  0
    3.6918    1.1542   -0.6165 H   0  0  0  0  0  0  0  0  0  0  0  0
    1.6111    2.4526   -0.3134 H   0  0  0  0  0  0  0  0  0  0  0  0
    1.5693   -2.4901    0.1769 H   0  0  0  0  0  0  0  0  0  0  0  0
   -1.0457   -1.2319    1.7057 H   0  0  0  0  0  0  0  0  0  0  0  0
   -0.8612   -2.4570    0.4084 H   0  0  0  0  0  0  0  0  0  0  0  0
   -2.2732   -1.3213   -1.0805 H   0  0  0  0  0  0  0  0  0  0  0  0
   -3.0392   -0.9652    0.4903 H   0  0  0  0  0  0  0  0  0  0  0  0
   -1.8981    0.8765   -1.5337 H   0  0  0  0  0  0  0  0  0  0  0  0
   -3.0043    1.2380   -0.1765 H   0  0  0  0  0  0  0  0  0  0  0  0
   -0.8157    2.5034   -0.1035 H   0  0  0  0  0  0  0  0  0  0  0  0
   -1.1169    1.5184    1.3739 H   0  0  0  0  0  0  0  0  0  0  0  0
  1  2  2  0
  2  3  1  0
  3  4  2  0
  4  5  1  0
  5  6  2  0
  5  7  1  0
  7  8  1  0
  8  9  1  0
  9 10  1  0
  6  1  1  0
 10  4  1  0
  1 11  1  0
  2 12  1  0
  3 13  1  0
  6 14  1  0
  7 15  1  0
  7 16  1  0
  8 17  1  0
  8 18  1  0
  9 19  1  0
  9 20  1  0
 10 21  1  0
 10 22  1  0
M  END
>  <UniqueID>  (4) 
3

>  <SMILES>  (4) 
c1ccc2c(c1)CCCC2

>  <Energy>  (4) 
25.81976105777789

>  <Genealogy>  (4) 
c1ccc2c(c1)CCCC2 (3D coordinates assigned)
c1ccc2c(c1)CCCC2 (nonaromatic ring conformer: 25.81976105777789 kcal/mol)

$$$$
various pHs
     RDKit          3D

 20 20  0  0  0  0  0  0  0  0999 V2000
   -1.5093    1.2021   -0.5311 N   0  0  0  0  0  0  0  0  0  0  0  0
   -1.5677   -0.1924   -0.0669 C   0  0  1  0  0  0  0  0  0  0  0  0
   -0.3718   -1.0121   -0.6008 C   0  0  0  0  0  0  0  0  0  0  0  0
    0.9621   -0.4555   -0.1855 C   0  0  0  0  0  0  0  0  0  0  0  0
    1.5308   -0.5178    1.0679 C   0  0  0  0  0  0  0  0  0  0  0  0
    2.7398    0.0773    1.0340 N   0  0  0  0  0  0  0  0  0  0  0  0
    2.8768    0.4848   -0.2462 C   0  0  0  0  0  0  0  0  0  0  0  0
    1.8146    0.1711   -1.0110 N   0  0  0  0  0  0  0  0  0  0  0  0
   -1.6730   -0.2804    1.4371 C   0  0  0  0  0  0  0  0  0  0  0  0
   -1.5797    0.7495    2.1572 O   0  0  0  0  0  0  0  0  0  0  0  0
   -1.8832   -1.5144    2.0400 O   0  0  0  0  0  0  0  0  0  0  0  0
   -0.6815    1.6988   -0.1283 H   0  0  0  0  0  0  0  0  0  0  0  0
   -1.4470    1.2262   -1.5749 H   0  0  0  0  0  0  0  0  0  0  0  0
   -2.3814    1.7052   -0.2465 H   0  0  0  0  0  0  0  0  0  0  0  0
   -2.4928   -0.6533   -0.4803 H   0  0  0  0  0  0  0  0  0  0  0  0
   -0.4482   -2.0672   -0.2596 H   0  0  0  0  0  0  0  0  0  0  0  0
   -0.4239   -1.0302   -1.7111 H   0  0  0  0  0  0  0  0  0  0  0  0
    1.1011   -0.9734    1.9499 H   0  0  0  0  0  0  0  0  0  0  0  0
    3.7495    1.0056   -0.6173 H   0  0  0  0  0  0  0  0  0  0  0  0
    1.6851    0.3763   -2.0266 H   0  0  0  0  0  0  0  0  0  0  0  0
  1  2  1  0
  2  3  1  0
  3  4  1  0
  4  5  2  0
  5  6  1  0
  6  7  2  0
  7  8  1  0
  2  9  1  0
  9 10  2  0
  9 11  1  0
  8  4  1  0
  1 12  1  0
  1 13  1  0
  1 14  1  0
  2 15  1  6
  3 16  1  0
  3 17  1  0
  5 18  1  0
  7 19  1  0
  8 20  1  0
M  CHG  2   1   1  11  -1
M  END
>  <UniqueID>  (5) 
4

>  <SMILES>  (5) 
[NH3+][C@@H](Cc1cnc[nH]1)C(=O)[O-]

>  <Energy>  (5) 
43.65862562974209

>  <Genealogy>  (5) 
[NH3+][C@@H](Cc1c[nH]cn1)C(=O)[O-] (protonated)
[NH3+][C@@H](Cc1cnc[nH]1)C(=O)[O-] (tautomer)
[NH3+][C@@H](Cc1cnc[nH]1)C(=O)[O-] (3D coordinates assigned)
[NH3+][C@@H](Cc1cnc[nH]1)C(=O)[O-] (optimized conformer: 43.65862562974209 kcal/mol)

$$$$
various pHs
     RDKit          3D

 21 21  0  0  0  0  0  0  0  0999 V2000
   -1.8622    0.8602    0.5992 N   0  0  0  0  0  0  0  0  0  0  0  0
   -1.6951   -0.2172   -0.3870 C   0  0  1  0  0  0  0  0  0  0  0  0
   -0.4522    0.0221   -1.2741 C   0  0  0  0  0  0  0  0  0  0  0  0
    0.8271    0.1192   -0.4897 C   0  0  0  0  0  0  0  0  0  0  0  0
    1.5042   -0.9186    0.1183 C   0  0  0  0  0  0  0  0  0  0  0  0
    2.6086   -0.4149    0.6981 N   0  0  0  0  0  0  0  0  0  0  0  0
    2.5906    0.9058    0.4337 C   0  0  0  0  0  0  0  0  0  0  0  0
    1.5145    1.2600   -0.2941 N   0  0  0  0  0  0  0  0  0  0  0  0
   -1.6551   -1.5733    0.2754 C   0  0  0  0  0  0  0  0  0  0  0  0
   -1.6599   -2.6159   -0.4311 O   0  0  0  0  0  0  0  0  0  0  0  0
   -1.6211   -1.6912    1.6604 O   0  0  0  0  0  0  0  0  0  0  0  0
   -1.0740    0.8669    1.2870 H   0  0  0  0  0  0  0  0  0  0  0  0
   -1.8975    1.7850    0.1117 H   0  0  0  0  0  0  0  0  0  0  0  0
   -2.7636    0.7302    1.1140 H   0  0  0  0  0  0  0  0  0  0  0  0
   -2.5845   -0.2097   -1.0568 H   0  0  0  0  0  0  0  0  0  0  0  0
   -0.5996    0.9674   -1.8402 H   0  0  0  0  0  0  0  0  0  0  0  0
   -0.3570   -0.7902   -2.0268 H   0  0  0  0  0  0  0  0  0  0  0  0
    1.2228   -1.9633    0.1318 H   0  0  0  0  0  0  0  0  0  0  0  0
    3.3325   -0.9399    1.2365 H   0  0  0  0  0  0  0  0  0  0  0  0
    3.3526    1.5996    0.7641 H   0  0  0  0  0  0  0  0  0  0  0  0
    1.2687    2.2175   -0.6304 H   0  0  0  0  0  0  0  0  0  0  0  0
  1  2  1  0
  2  3  1  0
  3  4  1  0
  4  5  2  0
  5  6  1  0
  6  7  1  0
  7  8  2  0
  2  9  1  0
  9 10  2  0
  9 11  1  0
  8  4  1  0
  1 12  1  0
  1 13  1  0
  1 14  1  0
  2 15  1  6
  3 16  1  0
  3 17  1  0
  5 18  1  0
  6 19  1  0
  7 20  1  0
  8 21  1  0
M  CHG  3   1   1   8   1  11  -1
M  END
>  <UniqueID>  (6) 
5

>  <SMILES>  (6) 
[NH3+][C@@H](Cc1c[nH]c[nH+]1)C(=O)[O-]

>  <Energy>  (6) 
45.40787820022126

>  <Genealogy>  (6) 
[NH3+][C@@H](Cc1c[nH]c[nH+]1)C(=O)[O-] (protonated)
[NH3+][C@@H](Cc1c[nH]c[nH+]1)C(=O)[O-] (3D coordinates assigned)
[NH3+][C@@H](Cc1c[nH]c[nH+]1)C(=O)[O-] (optimized conformer: 45.40787820022126 kcal/mol)

$$$$
various pHs
     RDKit          3D

 19 19  0  0  0  0  0  0  0  0999 V2000
   -1.4900    1.3051    0.2830 N   0  0  0  0  0  0  0  0  0  0  0  0
   -1.3750    0.0374   -0.4449 C   0  0  1  0  0  0  0  0  0  0  0  0
   -0.3416   -0.8819    0.2353 C   0  0  0  0  0  0  0  0  0  0  0  0
    1.0498   -0.3252    0.1481 C   0  0  0  0  0  0  0  0  0  0  0  0
    1.7883   -0.1340   -0.9987 C   0  0  0  0  0  0  0  0  0  0  0  0
    2.9916    0.3756   -0.6680 N   0  0  0  0  0  0  0  0  0  0  0  0
    2.9531    0.4791    0.6782 C   0  0  0  0  0  0  0  0  0  0  0  0
    1.7864    0.0587    1.2019 N   0  0  0  0  0  0  0  0  0  0  0  0
   -2.7108   -0.6580   -0.4955 C   0  0  0  0  0  0  0  0  0  0  0  0
   -2.8613   -1.6759   -1.2219 O   0  0  0  0  0  0  0  0  0  0  0  0
   -3.7870   -0.1895    0.2502 O   0  0  0  0  0  0  0  0  0  0  0  0
   -2.1745    1.9136   -0.2233 H   0  0  0  0  0  0  0  0  0  0  0  0
   -0.5761    1.8098    0.2248 H   0  0  0  0  0  0  0  0  0  0  0  0
   -1.0580    0.2449   -1.4925 H   0  0  0  0  0  0  0  0  0  0  0  0
   -0.3408   -1.8818   -0.2511 H   0  0  0  0  0  0  0  0  0  0  0  0
   -0.6196   -1.0243    1.3028 H   0  0  0  0  0  0  0  0  0  0  0  0
    1.4744   -0.3522   -2.0108 H   0  0  0  0  0  0  0  0  0  0  0  0
    3.7740    0.8589    1.2719 H   0  0  0  0  0  0  0  0  0  0  0  0
    1.5171    0.0396    2.2105 H   0  0  0  0  0  0  0  0  0  0  0  0
  1  2  1  0
  2  3  1  0
  3  4  1  0
  4  5  2  0
  5  6  1  0
  6  7  2  0
  7  8  1  0
  2  9  1  0
  9 10  2  0
  9 11  1  0
  8  4  1  0
  1 12  1  0
  1 13  1  0
  2 14  1  6
  3 15  1  0
  3 16  1  0
  5 17  1  0
  7 18  1  0
  8 19  1  0
M  CHG  1  11  -1
M  END
>  <UniqueID>  (7) 
6

>  <SMILES>  (7) 
N[C@@H](Cc1cnc[nH]1)C(=O)[O-]

>  <Energy>  (7) 
41.29216129106847

>  <Genealogy>  (7) 
N[C@@H](Cc1c[nH]cn1)C(=O)[O-] (protonated)
N[C@@H](Cc1cnc[nH]1)C(=O)[O-] (tautomer)
N[C@@H](Cc1cnc[nH]1)C(=O)[O-] (3D coordinates assigned)
N[C@@H](Cc1cnc[nH]1)C(=O)[O-] (optimized conformer: 41.29216129106847 kcal/mol)

$$$$
various pHs
     RDKit          3D

 20 20  0  0  0  0  0  0  0  0999 V2000
   -1.5620   -0.9078    0.9459 N   0  0  0  0  0  0  0  0  0  0  0  0
   -1.4717    0.4359    0.3651 C   0  0  1  0  0  0  0  0  0  0  0  0
   -0.4562    0.4467   -0.7909 C   0  0  0  0  0  0  0  0  0  0  0  0
    0.9114    0.0420   -0.3237 C   0  0  0  0  0  0  0  0  0  0  0  0
    1.6137   -1.0771   -0.7199 C   0  0  0  0  0  0  0  0  0  0  0  0
    2.7975   -1.0751   -0.0809 N   0  0  0  0  0  0  0  0  0  0  0  0
    2.7987    0.0342    0.6839 C   0  0  0  0  0  0  0  0  0  0  0  0
    1.6578    0.7377    0.5544 N   0  0  0  0  0  0  0  0  0  0  0  0
   -2.8175    0.9236   -0.1152 C   0  0  0  0  0  0  0  0  0  0  0  0
   -2.9425    2.1057   -0.5316 O   0  0  0  0  0  0  0  0  0  0  0  0
   -3.9306    0.0904   -0.0944 O   0  0  0  0  0  0  0  0  0  0  0  0
   -1.9523   -1.5720    0.2375 H   0  0  0  0  0  0  0  0  0  0  0  0
   -2.2199   -0.8823    1.7591 H   0  0  0  0  0  0  0  0  0  0  0  0
   -1.1220    1.1365    1.1558 H   0  0  0  0  0  0  0  0  0  0  0  0
   -0.7977   -0.2431   -1.5941 H   0  0  0  0  0  0  0  0  0  0  0  0
   -0.3862    1.4674   -1.2256 H   0  0  0  0  0  0  0  0  0  0  0  0
    1.2895   -1.8369   -1.4190 H   0  0  0  0  0  0  0  0  0  0  0  0
    3.5583   -1.7853   -0.1620 H   0  0  0  0  0  0  0  0  0  0  0  0
    3.6204    0.3265    1.3247 H   0  0  0  0  0  0  0  0  0  0  0  0
    1.4115    1.6331    1.0317 H   0  0  0  0  0  0  0  0  0  0  0  0
  1  2  1  0
  2  3  1  0
  3  4  1  0
  4  5  2  0
  5  6  1  0
  6  7  1  0
  7  8  2  0
  2  9  1  0
  9 10  2  0
  9 11  1  0
  8  4  1  0
  1 12  1  0
  1 13  1  0
  2 14  1  1
  3 15  1  0
  3 16  1  0
  5 17  1  0
  6 18  1  0
  7 19  1  0
  8 20  1  0
M  CHG  2   8   1  11  -1
M  END
>  <UniqueID>  (8) 
7

>  <SMILES>  (8) 
N[C@@H](Cc1c[nH]c[nH+]1)C(=O)[O-]

>  <Energy>  (8) 
43.37267212362336

>  <Genealogy>  (8) 
N[C@@H](Cc1c[nH]c[nH+]1)C(=O)[O-] (protonated)
N[C@@H](Cc1c[nH]c[nH+]1)C(=O)[O-] (3D coordinates assigned)
N[C@@H](Cc1c[nH]c[nH+]1)C(=O)[O-] (optimized conformer: 43.37267212362336 kcal/mol)

$$$$
various pHs
     RDKit          3D

 19 19  0  0  0  0  0  0  0  0999 V2000
   -1.8570    1.1102    0.2822 N   0  0  0  0  0  0  0  0  0  0  0  0
   -1.7534   -0.3311    0.0307 C   0  0  1  0  0  0  0  0  0  0  0  0
   -0.6506   -0.6190   -1.0074 C   0  0  0  0  0  0  0  0  0  0  0  0
    0.7137   -0.1790   -0.5552 C   0  0  0  0  0  0  0  0  0  0  0  0
    1.4657    0.8284   -1.1180 C   0  0  0  0  0  0  0  0  0  0  0  0
    2.6220    0.9049   -0.4431 N   0  0  0  0  0  0  0  0  0  0  0  0
    2.5517   -0.0502    0.5034 C   0  0  0  0  0  0  0  0  0  0  0  0
    1.3930   -0.7414    0.4651 N   0  0  0  0  0  0  0  0  0  0  0  0
   -1.5502   -1.1159    1.3058 C   0  0  0  0  0  0  0  0  0  0  0  0
   -1.5552   -2.3749    1.2733 O   0  0  0  0  0  0  0  0  0  0  0  0
   -1.3678   -0.4688    2.5230 O   0  0  0  0  0  0  0  0  0  0  0  0
   -1.0158    1.4417    0.8087 H   0  0  0  0  0  0  0  0  0  0  0  0
   -2.6935    1.2860    0.8855 H   0  0  0  0  0  0  0  0  0  0  0  0
   -2.7167   -0.6683   -0.4124 H   0  0  0  0  0  0  0  0  0  0  0  0
   -0.9111   -0.0951   -1.9531 H   0  0  0  0  0  0  0  0  0  0  0  0
   -0.6200   -1.7063   -1.2358 H   0  0  0  0  0  0  0  0  0  0  0  0
    1.1932    1.4594   -1.9540 H   0  0  0  0  0  0  0  0  0  0  0  0
    3.4116    1.5652   -0.6165 H   0  0  0  0  0  0  0  0  0  0  0  0
    3.3404   -0.2454    1.2178 H   0  0  0  0  0  0  0  0  0  0  0  0
  1  2  1  0
  2  3  1  0
  3  4  1  0
  4  5  2  0
  5  6  1  0
  6  7  1  0
  7  8  2  0
  2  9  1  0
  9 10  2  0
  9 11  1  0
  8  4  1  0
  1 12  1  0
  1 13  1  0
  2 14  1  6
  3 15  1  0
  3 16  1  0
  5 17  1  0
  6 18  1  0
  7 19  1  0
M  CHG  1  11  -1
M  END
>  <UniqueID>  (9) 
8

>  <SMILES>  (9) 
N[C@@H](Cc1c[nH]cn1)C(=O)[O-]

>  <Energy>  (9) 
42.37262961040457

>  <Genealogy>  (9) 
N[C@@H](Cc1c[nH]cn1)C(=O)[O-] (protonated)
N[C@@H](Cc1c[nH]cn1)C(=O)[O-] (3D coordinates assigned)
N[C@@H](Cc1c[nH]cn1)C(=O)[O-] (optimized conformer: 42.37262961040457 kcal/mol)

$$$$
tautomers
     RDKit          3D

 12 12  0  0  0  0  0  0  0  0999 V2000
    2.5209   -0.5343    0.2580 O   0  0  0  0  0  0  0  0  0  0  0  0
    1.1451   -0.3671    0.1258 C   0  0  0  0  0  0  0  0  0  0  0  0
    0.5898    0.9123   -0.0115 C   0  0  0  0  0  0  0  0  0  0  0  0
   -0.7943    1.0461   -0.1421 C   0  0  0  0  0  0  0  0  0  0  0  0
   -1.6057   -0.0902   -0.1345 C   0  0  0  0  0  0  0  0  0  0  0  0
   -1.0163   -1.3492    0.0044 C   0  0  0  0  0  0  0  0  0  0  0  0
    0.3337   -1.4594    0.1304 N   0  0  0  0  0  0  0  0  0  0  0  0
    3.1526    0.2581    0.2585 H   0  0  0  0  0  0  0  0  0  0  0  0
    1.2221    1.7909   -0.0170 H   0  0  0  0  0  0  0  0  0  0  0  0
   -1.2368    2.0281   -0.2489 H   0  0  0  0  0  0  0  0  0  0  0  0
   -2.6792    0.0033   -0.2351 H   0  0  0  0  0  0  0  0  0  0  0  0
   -1.6319   -2.2387    0.0121 H   0  0  0  0  0  0  0  0  0  0  0  0
  1  2  1  0
  2  3  2  0
  3  4  1  0
  4  5  2  0
  5  6  1  0
  6  7  2  0
  7  2  1  0
  1  8  1  0
  3  9  1  0
  4 10  1  0
  5 11  1  0
  6 12  1  0
M  END
>  <UniqueID>  (10) 
9

>  <SMILES>  (10) 
Oc1ccccn1

>  <Energy>  (10) 
10.987552411415582

>  <Genealogy>  (10) 
Oc1ccccn1 (tautomer)
Oc1ccccn1 (3D coordinates assigned)
Oc1ccccn1 (optimized conformer: 10.987552411415582 kcal/mol)

$$$$
tautomers
     RDKit          3D

 12 12  0  0  0  0  0  0  0  0999 V2000
   -1.7563   -1.9555   -0.0059 O   0  0  0  0  0  0  0  0  0  0  0  0
   -0.9144   -1.0182   -0.0031 C   0  0  0  0  0  0  0  0  0  0  0  0
    0.4537   -1.3096    0.0249 C   0  0  0  0  0  0  0  0  0  0  0  0
    1.3758   -0.2612    0.0277 C   0  0  0  0  0  0  0  0  0  0  0  0
    0.9246    1.0593    0.0027 C   0  0  0  0  0  0  0  0  0  0  0  0
   -0.4491    1.3122   -0.0249 C   0  0  0  0  0  0  0  0  0  0  0  0
   -1.3356    0.2783   -0.0272 N   0  0  0  0  0  0  0  0  0  0  0  0
    0.7995   -2.3358    0.0443 H   0  0  0  0  0  0  0  0  0  0  0  0
    2.4372   -0.4719    0.0493 H   0  0  0  0  0  0  0  0  0  0  0  0
    1.6317    1.8788    0.0047 H   0  0  0  0  0  0  0  0  0  0  0  0
   -0.8080    2.3335   -0.0444 H   0  0  0  0  0  0  0  0  0  0  0  0
   -2.3589    0.4899   -0.0481 H   0  0  0  0  0  0  0  0  0  0  0  0
  1  2  2  0
  2  3  1  0
  3  4  2  0
  4  5  1  0
  5  6  2  0
  6  7  1  0
  7  2  1  0
  3  8  1  0
  4  9  1  0
  5 10  1  0
  6 11  1  0
  7 12  1  0
M  END
>  <UniqueID>  (11) 
10

>  <SMILES>  (11) 
O=c1cccc[nH]1

>  <Energy>  (11) 
10.989887201291818

>  <Genealogy>  (11) 
O=c1cccc[nH]1 (3D coordinates assigned)
O=c1cccc[nH]1 (optimized conformer: 10.989887201291818 kcal/mol)

$$$$
double bonds
     RDKit          3D

  9  8  0  0  0  0  0  0  0  0999 V2000
   -1.1521   -0.1746   -0.0095 C   0  0  0  0  0  0  0  0  0  0  0  0
    0.3144   -0.4897    0.0595 C   0  0  0  0  0  0  0  0  0  0  0  0
    0.8053   -2.1710    0.2496 Cl  0  0  0  0  0  0  0  0  0  0  0  0
    1.2530    0.4686   -0.0192 C   0  0  0  0  0  0  0  0  0  0  0  0
    2.5689    0.1338    0.0482 F   0  0  0  0  0  0  0  0  0  0  0  0
    0.7892    2.5271   -0.2486 I   0  0  0  0  0  0  0  0  0  0  0  0
   -1.7517   -1.1050    0.0746 H   0  0  0  0  0  0  0  0  0  0  0  0
   -1.4354    0.5010    0.8250 H   0  0  0  0  0  0  0  0  0  0  0  0
   -1.3916    0.3098   -0.9795 H   0  0  0  0  0  0  0  0  0  0  0  0
  1  2  1  0
  2  3  1  0
  2  4  2  0
  4  5  1  0
  4  6  1  0
  1  7  1  0
  1  8  1  0
  1  9  1  0
M  END
>  <UniqueID>  (12) 
11

>  <SMILES>  (12) 
C/C(Cl)=C(/F)I

>  <Energy>  (12) 
2.964009356659215

>  <Genealogy>  (12) 
C/C(Cl)=C(/F)I (cis-trans isomerization)
C/C(Cl)=C(/F)I (3D coordinates assigned)
C/C(Cl)=C(/F)I (optimized conformer: 2.964009356659215 kcal/mol)

$$$$
chirality
     RDKit          3D

 14 13  0  0  0  0  0  0  0  0999 V2000
   -1.5999   -0.2532   -0.2594 C   0  0  0  0  0  0  0  0  0  0  0  0
   -0.5874    0.1432    0.8220 C   0  0  1  0  0  0  0  0  0  0  0  0
   -1.1295    1.1778    1.5660 F   0  0  0  0  0  0  0  0  0  0  0  0
   -0.3467   -1.5172    2.1699 I   0  0  0  0  0  0  0  0  0  0  0  0
    0.7803    0.6073    0.2522 C   0  0  2  0  0  0  0  0  0  0  0  0
    1.4290   -0.4119   -0.6924 C   0  0  0  0  0  0  0  0  0  0  0  0
    1.6458    0.8315    1.3097 F   0  0  0  0  0  0  0  0  0  0  0  0
    0.5941    2.4801   -0.7918 I   0  0  0  0  0  0  0  0  0  0  0  0
   -1.2738   -1.1716   -0.7905 H   0  0  0  0  0  0  0  0  0  0  0  0
   -2.5841   -0.4621    0.2107 H   0  0  0  0  0  0  0  0  0  0  0  0
   -1.7380    0.5651   -0.9956 H   0  0  0  0  0  0  0  0  0  0  0  0
    0.8398   -0.5175   -1.6270 H   0  0  0  0  0  0  0  0  0  0  0  0
    1.5224   -1.4040   -0.2052 H   0  0  0  0  0  0  0  0  0  0  0  0
    2.4481   -0.0675   -0.9686 H   0  0  0  0  0  0  0  0  0  0  0  0
  1  2  1  0
  2  3  1  1
  2  4  1  0
  2  5  1  0
  5  6  1  0
  5  7  1  1
  5  8  1  0
  1  9  1  0
  1 10  1  0
  1 11  1  0
  6 12  1  0
  6 13  1  0
  6 14  1  0
M  END
>  <UniqueID>  (13) 
12

>  <SMILES>  (13) 
C[C@@](F)(I)[C@](C)(F)I

>  <Energy>  (13) 
6.557189001377246

>  <Genealogy>  (13) 
C[C@@](F)(I)[C@](C)(F)I (chirality)
C[C@@](F)(I)[C@](C)(F)I (3D coordinates assigned)
C[C@@](F)(I)[C@](C)(F)I (optimized conformer: 6.557189001377246 kcal/mol)

$$$$
chirality
     RDKit          3D

 14 13  0  0  0  0  0  0  0  0999 V2000
    1.4713   -0.3651    0.7211 C   0  0  0  0  0  0  0  0  0  0  0  0
    0.6919   -0.2231   -0.5919 C   0  0  2  0  0  0  0  0  0  0  0  0
    0.4246   -1.4930   -1.0769 F   0  0  0  0  0  0  0  0  0  0  0  0
    1.9672    0.7242   -2.0435 I   0  0  0  0  0  0  0  0  0  0  0  0
   -0.6457    0.5538   -0.4426 C   0  0  2  0  0  0  0  0  0  0  0  0
   -1.6379   -0.1647    0.4791 C   0  0  0  0  0  0  0  0  0  0  0  0
   -1.2321    0.6558   -1.6932 F   0  0  0  0  0  0  0  0  0  0  0  0
   -0.3821    2.5640    0.2933 I   0  0  0  0  0  0  0  0  0  0  0  0
    2.4194   -0.9120    0.5333 H   0  0  0  0  0  0  0  0  0  0  0  0
    0.8925   -0.9484    1.4661 H   0  0  0  0  0  0  0  0  0  0  0  0
    1.7250    0.6268    1.1473 H   0  0  0  0  0  0  0  0  0  0  0  0
   -1.2832   -0.1554    1.5304 H   0  0  0  0  0  0  0  0  0  0  0  0
   -2.6203    0.3523    0.4458 H   0  0  0  0  0  0  0  0  0  0  0  0
   -1.7905   -1.2151    0.1529 H   0  0  0  0  0  0  0  0  0  0  0  0
  1  2  1  0
  2  3  1  6
  2  4  1  0
  2  5  1  0
  5  6  1  0
  5  7  1  6
  5  8  1  0
  1  9  1  0
  1 10  1  0
  1 11  1  0
  6 12  1  0
  6 13  1  0
  6 14  1  0
M  END
>  <UniqueID>  (14) 
13

>  <SMILES>  (14) 
C[C@](F)(I)[C@](C)(F)I

>  <Energy>  (14) 
6.96360669771975

>  <Genealogy>  (14) 
C[C@](F)(I)[C@](C)(F)I (chirality)
C[C@](F)(I)[C@](C)(F)I (3D coordinates assigned)
C[C@](F)(I)[C@](C)(F)I (optimized conformer: 6.96360669771975 kcal/mol)

$$$$
