EMPTY MOLECULE DESCRIBING GYPSUM PARAMETERS
     RDKit          2D

  0  0  0  0  0  0  0  0  0  0999 V2000
M  END
>  <source>  (1) 
sample_molecules.smi

>  <output_file>  (1) 
output.sdf

>  <separate_output_files>  (1) 
False

>  <num_processors>  (1) 
-1

>  <start_time>  (1) 
2018-11-28 13:32:42.044711

>  <end_time>  (1) 
2018-11-28 13:32:42.679156

>  <run_time>  (1) 
0:00:00.634445

>  <min_ph>  (1) 
6.4

>  <max_ph>  (1) 
8.4

>  <ph_std_dev>  (1) 
1.0

>  <thoroughness>  (1) 
3

>  <max_variants_per_compound>  (1) 
5

>  <second_embed>  (1) 
False

>  <2d_output_only>  (1) 
False

>  <skip_optimize_geometry>  (1) 
False

>  <skip_alternate_ring_conformations>  (1) 
False

>  <skip_adding_hydrogen>  (1) 
False

>  <skip_making_tautomers>  (1) 
False

>  <skip_ennumerate_chiral_mol>  (1) 
False

>  <skip_ennumerate_double_bonds>  (1) 
False

>  <multithread_mode>  (1) 
multithreading

>  <Parallelizer>  (1) 
<gypsum.parallelizer.Parallelizer object at 0x7fd96e444080>

$$$$
non-aromatic puckers
     RDKit          3D

 22 23  0  0  0  0  0  0  0  0999 V2000
    2.8068    0.6858    0.1599 C   0  0  0  0  0  0  0  0  0  0  0  0
    2.8015   -0.7079    0.2291 C   0  0  0  0  0  0  0  0  0  0  0  0
    1.5906   -1.4028    0.2645 C   0  0  0  0  0  0  0  0  0  0  0  0
    0.3701   -0.7094    0.2213 C   0  0  0  0  0  0  0  0  0  0  0  0
    0.3756    0.7065    0.1790 C   0  0  0  0  0  0  0  0  0  0  0  0
    1.6013    1.3902    0.1301 C   0  0  0  0  0  0  0  0  0  0  0  0
   -0.9067    1.4987    0.0749 C   0  0  0  0  0  0  0  0  0  0  0  0
   -2.1312    0.6999    0.5313 C   0  0  0  0  0  0  0  0  0  0  0  0
   -2.1382   -0.6831   -0.1193 C   0  0  0  0  0  0  0  0  0  0  0  0
   -0.9179   -1.4915    0.3313 C   0  0  0  0  0  0  0  0  0  0  0  0
    3.7468    1.2214    0.1272 H   0  0  0  0  0  0  0  0  0  0  0  0
    3.7374   -1.2509    0.2574 H   0  0  0  0  0  0  0  0  0  0  0  0
    1.6034   -2.4840    0.3286 H   0  0  0  0  0  0  0  0  0  0  0  0
    1.6223    2.4712    0.0659 H   0  0  0  0  0  0  0  0  0  0  0  0
   -0.8334    2.4205    0.6922 H   0  0  0  0  0  0  0  0  0  0  0  0
   -1.0460    1.8061   -0.9843 H   0  0  0  0  0  0  0  0  0  0  0  0
   -3.0548    1.2484    0.2461 H   0  0  0  0  0  0  0  0  0  0  0  0
   -2.1210    0.5951    1.6389 H   0  0  0  0  0  0  0  0  0  0  0  0
   -2.1324   -0.5784   -1.2269 H   0  0  0  0  0  0  0  0  0  0  0  0
   -3.0647   -1.2242    0.1702 H   0  0  0  0  0  0  0  0  0  0  0  0
   -0.8548   -2.4139   -0.2862 H   0  0  0  0  0  0  0  0  0  0  0  0
   -1.0547   -1.7979    1.3912 H   0  0  0  0  0  0  0  0  0  0  0  0
  1  2  2  0
  2  3  1  0
  3  4  2  0
  4  5  1  0
  5  6  2  0
  5  7  1  0
  7  8  1  0
  8  9  1  0
  9 10  1  0
  6  1  1  0
 10  4  1  0
  1 11  1  0
  2 12  1  0
  3 13  1  0
  6 14  1  0
  7 15  1  0
  7 16  1  0
  8 17  1  0
  8 18  1  0
  9 19  1  0
  9 20  1  0
 10 21  1  0
 10 22  1  0
M  END
>  <UniqueID>  (2) 
1

>  <SMILES>  (2) 
c1ccc2c(c1)CCCC2

>  <Energy>  (2) 
20.5824238138291

>  <Genealogy>  (2) 
c1ccc2c(c1)CCCC2 (3D coordinates assigned)
c1ccc2c(c1)CCCC2 (nonaromatic ring conformer: 20.5824238138291 kcal/mol)

$$$$
non-aromatic puckers
     RDKit          3D

 22 23  0  0  0  0  0  0  0  0999 V2000
    2.8069    0.6865    0.2039 C   0  0  0  0  0  0  0  0  0  0  0  0
    2.8014   -0.7087    0.1850 C   0  0  0  0  0  0  0  0  0  0  0  0
    1.5904   -1.4043    0.1805 C   0  0  0  0  0  0  0  0  0  0  0  0
    0.3701   -0.7098    0.2045 C   0  0  0  0  0  0  0  0  0  0  0  0
    0.3756    0.7068    0.1958 C   0  0  0  0  0  0  0  0  0  0  0  0
    1.6015    1.3917    0.2141 C   0  0  0  0  0  0  0  0  0  0  0  0
   -0.9063    1.5024    0.2773 C   0  0  0  0  0  0  0  0  0  0  0  0
   -2.1328    0.6877   -0.1441 C   0  0  0  0  0  0  0  0  0  0  0  0
   -2.1366   -0.6709    0.5561 C   0  0  0  0  0  0  0  0  0  0  0  0
   -0.9184   -1.4952    0.1289 C   0  0  0  0  0  0  0  0  0  0  0  0
    3.7470    1.2229    0.2128 H   0  0  0  0  0  0  0  0  0  0  0  0
    3.7372   -1.2524    0.1718 H   0  0  0  0  0  0  0  0  0  0  0  0
    1.6030   -2.4871    0.1554 H   0  0  0  0  0  0  0  0  0  0  0  0
    1.6227    2.4744    0.2391 H   0  0  0  0  0  0  0  0  0  0  0  0
   -0.8360    2.4013   -0.3731 H   0  0  0  0  0  0  0  0  0  0  0  0
   -1.0405    1.8478    1.3254 H   0  0  0  0  0  0  0  0  0  0  0  0
   -3.0551    1.2462    0.1256 H   0  0  0  0  0  0  0  0  0  0  0  0
   -2.1280    0.5431   -1.2471 H   0  0  0  0  0  0  0  0  0  0  0  0
   -3.0644   -1.2221    0.2907 H   0  0  0  0  0  0  0  0  0  0  0  0
   -2.1254   -0.5263    1.6591 H   0  0  0  0  0  0  0  0  0  0  0  0
   -1.0602   -1.8395   -0.9185 H   0  0  0  0  0  0  0  0  0  0  0  0
   -0.8522   -2.3947    0.7791 H   0  0  0  0  0  0  0  0  0  0  0  0
  1  2  2  0
  2  3  1  0
  3  4  2  0
  4  5  1  0
  5  6  2  0
  5  7  1  0
  7  8  1  0
  8  9  1  0
  9 10  1  0
  6  1  1  0
 10  4  1  0
  1 11  1  0
  2 12  1  0
  3 13  1  0
  6 14  1  0
  7 15  1  0
  7 16  1  0
  8 17  1  0
  8 18  1  0
  9 19  1  0
  9 20  1  0
 10 21  1  0
 10 22  1  0
M  END
>  <UniqueID>  (3) 
2

>  <SMILES>  (3) 
c1ccc2c(c1)CCCC2

>  <Energy>  (3) 
20.582423814561068

>  <Genealogy>  (3) 
c1ccc2c(c1)CCCC2 (3D coordinates assigned)
c1ccc2c(c1)CCCC2 (nonaromatic ring conformer: 20.582423814561068 kcal/mol)

$$$$
non-aromatic puckers
     RDKit          3D

 22 23  0  0  0  0  0  0  0  0999 V2000
    2.7752    0.6891    0.0036 C   0  0  0  0  0  0  0  0  0  0  0  0
    2.7698   -0.7090    0.0148 C   0  0  0  0  0  0  0  0  0  0  0  0
    1.5720   -1.4049    0.2059 C   0  0  0  0  0  0  0  0  0  0  0  0
    0.3694   -0.7009    0.3699 C   0  0  0  0  0  0  0  0  0  0  0  0
    0.3761    0.7037    0.3618 C   0  0  0  0  0  0  0  0  0  0  0  0
    1.5827    1.3969    0.1826 C   0  0  0  0  0  0  0  0  0  0  0  0
   -0.9229    1.4290    0.5728 C   0  0  0  0  0  0  0  0  0  0  0  0
   -2.0276    0.7699   -0.2648 C   0  0  0  0  0  0  0  0  0  0  0  0
   -2.1175   -0.7689   -0.0899 C   0  0  0  0  0  0  0  0  0  0  0  0
   -0.9252   -1.4184    0.6453 C   0  0  0  0  0  0  0  0  0  0  0  0
    3.7051    1.2245   -0.1381 H   0  0  0  0  0  0  0  0  0  0  0  0
    3.6959   -1.2536   -0.1161 H   0  0  0  0  0  0  0  0  0  0  0  0
    1.5833   -2.4874    0.2304 H   0  0  0  0  0  0  0  0  0  0  0  0
    1.6003    2.4795    0.1810 H   0  0  0  0  0  0  0  0  0  0  0  0
   -0.8340    2.4982    0.2810 H   0  0  0  0  0  0  0  0  0  0  0  0
   -1.1935    1.3845    1.6499 H   0  0  0  0  0  0  0  0  0  0  0  0
   -1.8336    0.9984   -1.3363 H   0  0  0  0  0  0  0  0  0  0  0  0
   -3.0047    1.2323   -0.0058 H   0  0  0  0  0  0  0  0  0  0  0  0
   -2.2084   -1.2328   -1.0967 H   0  0  0  0  0  0  0  0  0  0  0  0
   -3.0491   -1.0214    0.4620 H   0  0  0  0  0  0  0  0  0  0  0  0
   -1.1112   -1.3840    1.7406 H   0  0  0  0  0  0  0  0  0  0  0  0
   -0.8555   -2.4882    0.3501 H   0  0  0  0  0  0  0  0  0  0  0  0
  1  2  2  0
  2  3  1  0
  3  4  2  0
  4  5  1  0
  5  6  2  0
  5  7  1  0
  7  8  1  0
  8  9  1  0
  9 10  1  0
  6  1  1  0
 10  4  1  0
  1 11  1  0
  2 12  1  0
  3 13  1  0
  6 14  1  0
  7 15  1  0
  7 16  1  0
  8 17  1  0
  8 18  1  0
  9 19  1  0
  9 20  1  0
 10 21  1  0
 10 22  1  0
M  END
>  <UniqueID>  (4) 
3

>  <SMILES>  (4) 
c1ccc2c(c1)CCCC2

>  <Energy>  (4) 
25.819761053404118

>  <Genealogy>  (4) 
c1ccc2c(c1)CCCC2 (3D coordinates assigned)
c1ccc2c(c1)CCCC2 (nonaromatic ring conformer: 25.819761053404118 kcal/mol)

$$$$
various pHs
     RDKit          3D

 19 19  0  0  0  0  0  0  0  0999 V2000
   -1.1854    1.6783    0.1287 N   0  0  0  0  0  0  0  0  0  0  0  0
   -1.5278    0.2578    0.0101 C   0  0  1  0  0  0  0  0  0  0  0  0
   -0.6059   -0.5934    0.9083 C   0  0  0  0  0  0  0  0  0  0  0  0
    0.8174   -0.5649    0.4344 C   0  0  0  0  0  0  0  0  0  0  0  0
    1.8950   -0.0714    1.1355 C   0  0  0  0  0  0  0  0  0  0  0  0
    2.9881   -0.2327    0.3755 N   0  0  0  0  0  0  0  0  0  0  0  0
    2.5569   -0.8169   -0.7585 C   0  0  0  0  0  0  0  0  0  0  0  0
    1.2255   -1.0394   -0.7600 N   0  0  0  0  0  0  0  0  0  0  0  0
   -2.9789    0.0597    0.3739 C   0  0  0  0  0  0  0  0  0  0  0  0
   -3.8773    0.5574   -0.3550 O   0  0  0  0  0  0  0  0  0  0  0  0
   -3.3475   -0.6654    1.5024 O   0  0  0  0  0  0  0  0  0  0  0  0
   -1.8036    2.2258   -0.5138 H   0  0  0  0  0  0  0  0  0  0  0  0
   -0.2151    1.8215   -0.2339 H   0  0  0  0  0  0  0  0  0  0  0  0
   -1.3976   -0.0688   -1.0471 H   0  0  0  0  0  0  0  0  0  0  0  0
   -0.6613   -0.2240    1.9564 H   0  0  0  0  0  0  0  0  0  0  0  0
   -0.9443   -1.6523    0.8988 H   0  0  0  0  0  0  0  0  0  0  0  0
    1.8861    0.3729    2.1223 H   0  0  0  0  0  0  0  0  0  0  0  0
    3.9679    0.0373    0.6136 H   0  0  0  0  0  0  0  0  0  0  0  0
    3.2077   -1.0815   -1.5814 H   0  0  0  0  0  0  0  0  0  0  0  0
  1  2  1  0
  2  3  1  0
  3  4  1  0
  4  5  2  0
  5  6  1  0
  6  7  1  0
  7  8  2  0
  2  9  1  0
  9 10  2  0
  9 11  1  0
  8  4  1  0
  1 12  1  0
  1 13  1  0
  2 14  1  6
  3 15  1  0
  3 16  1  0
  5 17  1  0
  6 18  1  0
  7 19  1  0
M  CHG  1  11  -1
M  END
>  <UniqueID>  (5) 
4

>  <SMILES>  (5) 
N[C@@H](Cc1c[nH]cn1)C(=O)[O-]

>  <Energy>  (5) 
41.64716768551608

>  <Genealogy>  (5) 
N[C@@H](Cc1c[nH]cn1)C(=O)[O-] (protonated)
N[C@@H](Cc1c[nH]cn1)C(=O)[O-] (3D coordinates assigned)
N[C@@H](Cc1c[nH]cn1)C(=O)[O-] (optimized conformer: 41.64716768551608 kcal/mol)

$$$$
various pHs
     RDKit          3D

 21 21  0  0  0  0  0  0  0  0999 V2000
   -1.7269   -0.8853   -0.5486 N   0  0  0  0  0  0  0  0  0  0  0  0
   -1.4632    0.1494    0.4637 C   0  0  1  0  0  0  0  0  0  0  0  0
   -0.2868    1.0536    0.0394 C   0  0  0  0  0  0  0  0  0  0  0  0
    1.0016    0.2901   -0.0593 C   0  0  0  0  0  0  0  0  0  0  0  0
    1.6763   -0.3187    0.9789 C   0  0  0  0  0  0  0  0  0  0  0  0
    2.7865   -0.8895    0.4777 N   0  0  0  0  0  0  0  0  0  0  0  0
    2.7721   -0.6205   -0.8425 C   0  0  0  0  0  0  0  0  0  0  0  0
    1.6925    0.1013   -1.1989 N   0  0  0  0  0  0  0  0  0  0  0  0
   -2.6878    0.9966    0.7136 C   0  0  0  0  0  0  0  0  0  0  0  0
   -3.7163    0.8836   -0.0058 O   0  0  0  0  0  0  0  0  0  0  0  0
   -2.6865    1.9149    1.7564 O   0  0  0  0  0  0  0  0  0  0  0  0
   -1.9283   -0.4504   -1.4788 H   0  0  0  0  0  0  0  0  0  0  0  0
   -2.5430   -1.4707   -0.2554 H   0  0  0  0  0  0  0  0  0  0  0  0
   -0.8999   -1.5185   -0.6396 H   0  0  0  0  0  0  0  0  0  0  0  0
   -1.2077   -0.3506    1.4250 H   0  0  0  0  0  0  0  0  0  0  0  0
   -0.1462    1.8687    0.7823 H   0  0  0  0  0  0  0  0  0  0  0  0
   -0.5154    1.5266   -0.9407 H   0  0  0  0  0  0  0  0  0  0  0  0
    1.3837   -0.3445    2.0205 H   0  0  0  0  0  0  0  0  0  0  0  0
    3.5100   -1.4282    1.0031 H   0  0  0  0  0  0  0  0  0  0  0  0
    3.5380   -0.9455   -1.5346 H   0  0  0  0  0  0  0  0  0  0  0  0
    1.4470    0.4376   -2.1564 H   0  0  0  0  0  0  0  0  0  0  0  0
  1  2  1  0
  2  3  1  0
  3  4  1  0
  4  5  2  0
  5  6  1  0
  6  7  1  0
  7  8  2  0
  2  9  1  0
  9 10  2  0
  9 11  1  0
  8  4  1  0
  1 12  1  0
  1 13  1  0
  1 14  1  0
  2 15  1  1
  3 16  1  0
  3 17  1  0
  5 18  1  0
  6 19  1  0
  7 20  1  0
  8 21  1  0
M  CHG  3   1   1   8   1  11  -1
M  END
>  <UniqueID>  (6) 
5

>  <SMILES>  (6) 
[NH3+][C@@H](Cc1c[nH]c[nH+]1)C(=O)[O-]

>  <Energy>  (6) 
44.75431648466372

>  <Genealogy>  (6) 
[NH3+][C@@H](Cc1c[nH]c[nH+]1)C(=O)[O-] (protonated)
[NH3+][C@@H](Cc1c[nH]c[nH+]1)C(=O)[O-] (3D coordinates assigned)
[NH3+][C@@H](Cc1c[nH]c[nH+]1)C(=O)[O-] (optimized conformer: 44.75431648466372 kcal/mol)

$$$$
various pHs
     RDKit          3D

 20 20  0  0  0  0  0  0  0  0999 V2000
   -1.5620   -0.9078    0.9459 N   0  0  0  0  0  0  0  0  0  0  0  0
   -1.4717    0.4359    0.3651 C   0  0  1  0  0  0  0  0  0  0  0  0
   -0.4562    0.4467   -0.7909 C   0  0  0  0  0  0  0  0  0  0  0  0
    0.9114    0.0420   -0.3237 C   0  0  0  0  0  0  0  0  0  0  0  0
    1.6137   -1.0771   -0.7199 C   0  0  0  0  0  0  0  0  0  0  0  0
    2.7975   -1.0751   -0.0809 N   0  0  0  0  0  0  0  0  0  0  0  0
    2.7987    0.0342    0.6839 C   0  0  0  0  0  0  0  0  0  0  0  0
    1.6578    0.7377    0.5544 N   0  0  0  0  0  0  0  0  0  0  0  0
   -2.8175    0.9236   -0.1152 C   0  0  0  0  0  0  0  0  0  0  0  0
   -2.9425    2.1057   -0.5316 O   0  0  0  0  0  0  0  0  0  0  0  0
   -3.9306    0.0904   -0.0944 O   0  0  0  0  0  0  0  0  0  0  0  0
   -1.9523   -1.5720    0.2375 H   0  0  0  0  0  0  0  0  0  0  0  0
   -2.2199   -0.8823    1.7591 H   0  0  0  0  0  0  0  0  0  0  0  0
   -1.1220    1.1365    1.1558 H   0  0  0  0  0  0  0  0  0  0  0  0
   -0.7977   -0.2431   -1.5941 H   0  0  0  0  0  0  0  0  0  0  0  0
   -0.3862    1.4674   -1.2256 H   0  0  0  0  0  0  0  0  0  0  0  0
    1.2895   -1.8369   -1.4190 H   0  0  0  0  0  0  0  0  0  0  0  0
    3.5583   -1.7853   -0.1620 H   0  0  0  0  0  0  0  0  0  0  0  0
    3.6204    0.3265    1.3247 H   0  0  0  0  0  0  0  0  0  0  0  0
    1.4115    1.6331    1.0317 H   0  0  0  0  0  0  0  0  0  0  0  0
  1  2  1  0
  2  3  1  0
  3  4  1  0
  4  5  2  0
  5  6  1  0
  6  7  1  0
  7  8  2  0
  2  9  1  0
  9 10  2  0
  9 11  1  0
  8  4  1  0
  1 12  1  0
  1 13  1  0
  2 14  1  1
  3 15  1  0
  3 16  1  0
  5 17  1  0
  6 18  1  0
  7 19  1  0
  8 20  1  0
M  CHG  2   8   1  11  -1
M  END
>  <UniqueID>  (7) 
6

>  <SMILES>  (7) 
N[C@@H](Cc1c[nH]c[nH+]1)C(=O)[O-]

>  <Energy>  (7) 
43.37267212362336

>  <Genealogy>  (7) 
N[C@@H](Cc1c[nH]c[nH+]1)C(=O)[O-] (protonated)
N[C@@H](Cc1c[nH]c[nH+]1)C(=O)[O-] (3D coordinates assigned)
N[C@@H](Cc1c[nH]c[nH+]1)C(=O)[O-] (optimized conformer: 43.37267212362336 kcal/mol)

$$$$
various pHs
     RDKit          3D

 19 19  0  0  0  0  0  0  0  0999 V2000
   -2.6292    1.0237    0.2737 N   0  0  0  0  0  0  0  0  0  0  0  0
   -1.4422    0.3605   -0.2702 C   0  0  1  0  0  0  0  0  0  0  0  0
   -0.2805    0.4678    0.7443 C   0  0  0  0  0  0  0  0  0  0  0  0
    1.0557   -0.0027    0.2249 C   0  0  0  0  0  0  0  0  0  0  0  0
    1.3858   -0.4250   -1.0496 C   0  0  0  0  0  0  0  0  0  0  0  0
    2.6954   -0.7421   -1.0869 N   0  0  0  0  0  0  0  0  0  0  0  0
    3.1340   -0.5030    0.1666 C   0  0  0  0  0  0  0  0  0  0  0  0
    2.1633   -0.0522    0.9817 N   0  0  0  0  0  0  0  0  0  0  0  0
   -1.7839   -1.0735   -0.6003 C   0  0  0  0  0  0  0  0  0  0  0  0
   -2.5904   -1.3215   -1.5350 O   0  0  0  0  0  0  0  0  0  0  0  0
   -1.2263   -2.1308    0.1111 O   0  0  0  0  0  0  0  0  0  0  0  0
   -3.3817    1.0104   -0.4533 H   0  0  0  0  0  0  0  0  0  0  0  0
   -2.4048    2.0343    0.4259 H   0  0  0  0  0  0  0  0  0  0  0  0
   -1.1424    0.8801   -1.2086 H   0  0  0  0  0  0  0  0  0  0  0  0
   -0.5337   -0.1073    1.6615 H   0  0  0  0  0  0  0  0  0  0  0  0
   -0.1593    1.5301    1.0474 H   0  0  0  0  0  0  0  0  0  0  0  0
    0.7262   -0.4978   -1.9034 H   0  0  0  0  0  0  0  0  0  0  0  0
    4.1580   -0.6558    0.4808 H   0  0  0  0  0  0  0  0  0  0  0  0
    2.2560    0.2048    1.9895 H   0  0  0  0  0  0  0  0  0  0  0  0
  1  2  1  0
  2  3  1  0
  3  4  1  0
  4  5  2  0
  5  6  1  0
  6  7  2  0
  7  8  1  0
  2  9  1  0
  9 10  2  0
  9 11  1  0
  8  4  1  0
  1 12  1  0
  1 13  1  0
  2 14  1  6
  3 15  1  0
  3 16  1  0
  5 17  1  0
  7 18  1  0
  8 19  1  0
M  CHG  1  11  -1
M  END
>  <UniqueID>  (8) 
7

>  <SMILES>  (8) 
N[C@@H](Cc1cnc[nH]1)C(=O)[O-]

>  <Energy>  (8) 
43.893187958090486

>  <Genealogy>  (8) 
N[C@@H](Cc1c[nH]cn1)C(=O)[O-] (protonated)
N[C@@H](Cc1cnc[nH]1)C(=O)[O-] (tautomer)
N[C@@H](Cc1cnc[nH]1)C(=O)[O-] (3D coordinates assigned)
N[C@@H](Cc1cnc[nH]1)C(=O)[O-] (optimized conformer: 43.893187958090486 kcal/mol)

$$$$
various pHs
     RDKit          3D

 20 20  0  0  0  0  0  0  0  0999 V2000
   -1.8245   -1.0568    0.2607 N   0  0  0  0  0  0  0  0  0  0  0  0
   -1.5871    0.3886    0.3943 C   0  0  1  0  0  0  0  0  0  0  0  0
   -0.2658    0.6742    1.1434 C   0  0  0  0  0  0  0  0  0  0  0  0
    0.9396    0.0749    0.4752 C   0  0  0  0  0  0  0  0  0  0  0  0
    1.5307    0.5111   -0.6909 C   0  0  0  0  0  0  0  0  0  0  0  0
    2.5886   -0.2758   -0.9353 N   0  0  0  0  0  0  0  0  0  0  0  0
    2.6226   -1.1609    0.0786 C   0  0  0  0  0  0  0  0  0  0  0  0
    1.6263   -0.9749    0.9699 N   0  0  0  0  0  0  0  0  0  0  0  0
   -1.6307    1.0914   -0.9417 C   0  0  0  0  0  0  0  0  0  0  0  0
   -1.7279    0.4405   -2.0163 O   0  0  0  0  0  0  0  0  0  0  0  0
   -1.5704    2.4786   -0.9905 O   0  0  0  0  0  0  0  0  0  0  0  0
   -1.7977   -1.5093    1.2034 H   0  0  0  0  0  0  0  0  0  0  0  0
   -2.7719   -1.2218   -0.1513 H   0  0  0  0  0  0  0  0  0  0  0  0
   -1.1032   -1.5019   -0.3524 H   0  0  0  0  0  0  0  0  0  0  0  0
   -2.4114    0.8164    1.0078 H   0  0  0  0  0  0  0  0  0  0  0  0
   -0.1159    1.7704    1.2507 H   0  0  0  0  0  0  0  0  0  0  0  0
   -0.3471    0.2594    2.1717 H   0  0  0  0  0  0  0  0  0  0  0  0
    1.2236    1.3432   -1.3105 H   0  0  0  0  0  0  0  0  0  0  0  0
    3.2509   -0.2110   -1.7395 H   0  0  0  0  0  0  0  0  0  0  0  0
    3.3714   -1.9362    0.1726 H   0  0  0  0  0  0  0  0  0  0  0  0
  1  2  1  0
  2  3  1  0
  3  4  1  0
  4  5  2  0
  5  6  1  0
  6  7  1  0
  7  8  2  0
  2  9  1  0
  9 10  2  0
  9 11  1  0
  8  4  1  0
  1 12  1  0
  1 13  1  0
  1 14  1  0
  2 15  1  1
  3 16  1  0
  3 17  1  0
  5 18  1  0
  6 19  1  0
  7 20  1  0
M  CHG  2   1   1  11  -1
M  END
>  <UniqueID>  (9) 
8

>  <SMILES>  (9) 
[NH3+][C@@H](Cc1c[nH]cn1)C(=O)[O-]

>  <Energy>  (9) 
43.56976689051306

>  <Genealogy>  (9) 
[NH3+][C@@H](Cc1c[nH]cn1)C(=O)[O-] (protonated)
[NH3+][C@@H](Cc1c[nH]cn1)C(=O)[O-] (3D coordinates assigned)
[NH3+][C@@H](Cc1c[nH]cn1)C(=O)[O-] (optimized conformer: 43.56976689051306 kcal/mol)

$$$$
tautomers
     RDKit          3D

 12 12  0  0  0  0  0  0  0  0999 V2000
    2.6101   -0.3086   -0.0280 O   0  0  0  0  0  0  0  0  0  0  0  0
    1.3590   -0.1607   -0.0146 C   0  0  0  0  0  0  0  0  0  0  0  0
    0.5243   -1.2830    0.0246 C   0  0  0  0  0  0  0  0  0  0  0  0
   -0.8603   -1.1046    0.0391 C   0  0  0  0  0  0  0  0  0  0  0  0
   -1.3938    0.1849    0.0145 C   0  0  0  0  0  0  0  0  0  0  0  0
   -0.5295    1.2819   -0.0245 C   0  0  0  0  0  0  0  0  0  0  0  0
    0.8189    1.0909   -0.0382 N   0  0  0  0  0  0  0  0  0  0  0  0
    0.9426   -2.2818    0.0437 H   0  0  0  0  0  0  0  0  0  0  0  0
   -1.5180   -1.9636    0.0694 H   0  0  0  0  0  0  0  0  0  0  0  0
   -2.4659    0.3334    0.0255 H   0  0  0  0  0  0  0  0  0  0  0  0
   -0.9347    2.2857   -0.0439 H   0  0  0  0  0  0  0  0  0  0  0  0
    1.4474    1.9255   -0.0675 H   0  0  0  0  0  0  0  0  0  0  0  0
  1  2  2  0
  2  3  1  0
  3  4  2  0
  4  5  1  0
  5  6  2  0
  6  7  1  0
  7  2  1  0
  3  8  1  0
  4  9  1  0
  5 10  1  0
  6 11  1  0
  7 12  1  0
M  END
>  <UniqueID>  (10) 
9

>  <SMILES>  (10) 
O=c1cccc[nH]1

>  <Energy>  (10) 
10.989887203484791

>  <Genealogy>  (10) 
O=c1cccc[nH]1 (3D coordinates assigned)
O=c1cccc[nH]1 (optimized conformer: 10.989887203484791 kcal/mol)

$$$$
tautomers
     RDKit          3D

 12 12  0  0  0  0  0  0  0  0999 V2000
    2.4263   -0.2347    0.8381 O   0  0  0  0  0  0  0  0  0  0  0  0
    1.1052   -0.1543    0.4104 C   0  0  0  0  0  0  0  0  0  0  0  0
    0.6879    0.9319   -0.3651 C   0  0  0  0  0  0  0  0  0  0  0  0
   -0.6418    0.9993   -0.7874 C   0  0  0  0  0  0  0  0  0  0  0  0
   -1.5352   -0.0137   -0.4324 C   0  0  0  0  0  0  0  0  0  0  0  0
   -1.0815   -1.0835    0.3436 C   0  0  0  0  0  0  0  0  0  0  0  0
    0.2174   -1.1310    0.7451 N   0  0  0  0  0  0  0  0  0  0  0  0
    2.7438   -1.0153    1.4004 H   0  0  0  0  0  0  0  0  0  0  0  0
    1.3859    1.7136   -0.6365 H   0  0  0  0  0  0  0  0  0  0  0  0
   -0.9788    1.8341   -1.3880 H   0  0  0  0  0  0  0  0  0  0  0  0
   -2.5675    0.0294   -0.7547 H   0  0  0  0  0  0  0  0  0  0  0  0
   -1.7616   -1.8757    0.6265 H   0  0  0  0  0  0  0  0  0  0  0  0
  1  2  1  0
  2  3  2  0
  3  4  1  0
  4  5  2  0
  5  6  1  0
  6  7  2  0
  7  2  1  0
  1  8  1  0
  3  9  1  0
  4 10  1  0
  5 11  1  0
  6 12  1  0
M  END
>  <UniqueID>  (11) 
10

>  <SMILES>  (11) 
Oc1ccccn1

>  <Energy>  (11) 
10.68827615941576

>  <Genealogy>  (11) 
Oc1ccccn1 (tautomer)
Oc1ccccn1 (3D coordinates assigned)
Oc1ccccn1 (optimized conformer: 10.68827615941576 kcal/mol)

$$$$
double bonds
     RDKit          3D

  9  8  0  0  0  0  0  0  0  0999 V2000
   -1.2388    0.0074   -0.0458 C   0  0  0  0  0  0  0  0  0  0  0  0
    0.2002    0.4283    0.0326 C   0  0  0  0  0  0  0  0  0  0  0  0
    0.5631    2.1504    0.1473 Cl  0  0  0  0  0  0  0  0  0  0  0  0
    1.1804   -0.4918    0.0152 C   0  0  0  0  0  0  0  0  0  0  0  0
    0.8735   -1.8141   -0.0739 F   0  0  0  0  0  0  0  0  0  0  0  0
    3.2368    0.0161    0.1218 I   0  0  0  0  0  0  0  0  0  0  0  0
   -1.4887   -0.6485    0.8148 H   0  0  0  0  0  0  0  0  0  0  0  0
   -1.4212   -0.5424   -0.9934 H   0  0  0  0  0  0  0  0  0  0  0  0
   -1.9053    0.8947   -0.0186 H   0  0  0  0  0  0  0  0  0  0  0  0
  1  2  1  0
  2  3  1  0
  2  4  2  0
  4  5  1  0
  4  6  1  0
  1  7  1  0
  1  8  1  0
  1  9  1  0
M  END
>  <UniqueID>  (12) 
11

>  <SMILES>  (12) 
C/C(Cl)=C(\F)I

>  <Energy>  (12) 
3.22753531379095

>  <Genealogy>  (12) 
C/C(Cl)=C(\F)I (cis-trans isomerization)
C/C(Cl)=C(\F)I (3D coordinates assigned)
C/C(Cl)=C(\F)I (optimized conformer: 3.22753531379095 kcal/mol)

$$$$
chirality
     RDKit          3D

 14 13  0  0  0  0  0  0  0  0999 V2000
   -1.6255    0.1868    0.2335 C   0  0  0  0  0  0  0  0  0  0  0  0
   -0.5332   -0.0764   -0.8102 C   0  0  2  0  0  0  0  0  0  0  0  0
   -0.3498    1.0821   -1.5474 F   0  0  0  0  0  0  0  0  0  0  0  0
   -1.2512   -1.5648   -2.1888 I   0  0  0  0  0  0  0  0  0  0  0  0
    0.8276   -0.5058   -0.1947 C   0  0  2  0  0  0  0  0  0  0  0  0
    1.4403    0.5887    0.6866 C   0  0  0  0  0  0  0  0  0  0  0  0
    1.7135   -0.7573   -1.2291 F   0  0  0  0  0  0  0  0  0  0  0  0
    0.6977   -2.3135    0.9744 I   0  0  0  0  0  0  0  0  0  0  0  0
   -2.5692    0.4694   -0.2791 H   0  0  0  0  0  0  0  0  0  0  0  0
   -1.8234   -0.7170    0.8449 H   0  0  0  0  0  0  0  0  0  0  0  0
   -1.3441    1.0275    0.9001 H   0  0  0  0  0  0  0  0  0  0  0  0
    2.4670    0.2929    0.9899 H   0  0  0  0  0  0  0  0  0  0  0  0
    0.8423    0.7383    1.6092 H   0  0  0  0  0  0  0  0  0  0  0  0
    1.5080    1.5493    0.1337 H   0  0  0  0  0  0  0  0  0  0  0  0
  1  2  1  0
  2  3  1  6
  2  4  1  0
  2  5  1  0
  5  6  1  0
  5  7  1  6
  5  8  1  0
  1  9  1  0
  1 10  1  0
  1 11  1  0
  6 12  1  0
  6 13  1  0
  6 14  1  0
M  END
>  <UniqueID>  (13) 
12

>  <SMILES>  (13) 
C[C@](F)(I)[C@](C)(F)I

>  <Energy>  (13) 
6.9636067036392015

>  <Genealogy>  (13) 
C[C@](F)(I)[C@](C)(F)I (chirality)
C[C@](F)(I)[C@](C)(F)I (3D coordinates assigned)
C[C@](F)(I)[C@](C)(F)I (optimized conformer: 6.9636067036392015 kcal/mol)

$$$$
chirality
     RDKit          3D

 14 13  0  0  0  0  0  0  0  0999 V2000
   -1.5072    0.2867   -0.6236 C   0  0  0  0  0  0  0  0  0  0  0  0
   -0.6669    0.2774    0.6590 C   0  0  1  0  0  0  0  0  0  0  0  0
   -0.3820    1.5868    1.0095 F   0  0  0  0  0  0  0  0  0  0  0  0
   -1.8914   -0.5685    2.2171 I   0  0  0  0  0  0  0  0  0  0  0  0
    0.6558   -0.5220    0.5034 C   0  0  2  0  0  0  0  0  0  0  0  0
    1.5195   -0.0168   -0.6585 C   0  0  0  0  0  0  0  0  0  0  0  0
    0.3696   -1.8605    0.2911 F   0  0  0  0  0  0  0  0  0  0  0  0
    1.8482   -0.3807    2.2924 I   0  0  0  0  0  0  0  0  0  0  0  0
   -1.6845   -0.7488   -0.9840 H   0  0  0  0  0  0  0  0  0  0  0  0
   -2.4894    0.7669   -0.4284 H   0  0  0  0  0  0  0  0  0  0  0  0
   -1.0060    0.8737   -1.4209 H   0  0  0  0  0  0  0  0  0  0  0  0
    1.0352   -0.2308   -1.6338 H   0  0  0  0  0  0  0  0  0  0  0  0
    2.4997   -0.5387   -0.6554 H   0  0  0  0  0  0  0  0  0  0  0  0
    1.6993    1.0754   -0.5677 H   0  0  0  0  0  0  0  0  0  0  0  0
  1  2  1  0
  2  3  1  1
  2  4  1  0
  2  5  1  0
  5  6  1  0
  5  7  1  6
  5  8  1  0
  1  9  1  0
  1 10  1  0
  1 11  1  0
  6 12  1  0
  6 13  1  0
  6 14  1  0
M  END
>  <UniqueID>  (14) 
13

>  <SMILES>  (14) 
C[C@@](F)(I)[C@](C)(F)I

>  <Energy>  (14) 
6.601868812424518

>  <Genealogy>  (14) 
C[C@@](F)(I)[C@](C)(F)I (chirality)
C[C@@](F)(I)[C@](C)(F)I (3D coordinates assigned)
C[C@@](F)(I)[C@](C)(F)I (optimized conformer: 6.601868812424518 kcal/mol)

$$$$
