EMPTY MOLECULE DESCRIBING GYPSUM PARAMETERS
     RDKit          

  0  0  0  0  0  0  0  0  0  0999 V2000
M  END
>  <source>  (1) 
sample_molecules.smi

>  <output_file>  (1) 
output.sdf

>  <separate_output_files>  (1) 
False

>  <openbabel_executable>  (1) 
/usr/local/bin/obabel

>  <num_processors>  (1) 
1

>  <min_ph>  (1) 
5.0

>  <max_ph>  (1) 
9.0

>  <delta_ph_increment>  (1) 
0.5

>  <thoroughness>  (1) 
3

>  <max_variants_per_compound>  (1) 
5

>  <optimize_geometry>  (1) 
True

>  <alternate_ring_conformations>  (1) 
True

$$$$
non-aromatic puckers
     RDKit          3D

 22 23  0  0  0  0  0  0  0  0999 V2000
    2.7848   -0.8349   -0.0024 C   0  0  0  0  0  0  0  0  0  0  0  0
    2.8619    0.4922    0.1380 C   0  0  0  0  0  0  0  0  0  0  0  0
    1.6304    1.3051    0.1812 C   0  0  0  0  0  0  0  0  0  0  0  0
    0.4235    0.7180    0.0963 C   0  0  0  0  0  0  0  0  0  0  0  0
    0.3378   -0.7642   -0.0780 C   0  0  0  0  0  0  0  0  0  0  0  0
    1.4675   -1.4931   -0.1068 C   0  0  0  0  0  0  0  0  0  0  0  0
   -1.0010   -1.4606   -0.0990 C   0  0  0  0  0  0  0  0  0  0  0  0
   -2.1435   -0.5103   -0.4718 C   0  0  0  0  0  0  0  0  0  0  0  0
   -2.0863    0.7669    0.3702 C   0  0  0  0  0  0  0  0  0  0  0  0
   -0.8207    1.5711    0.0553 C   0  0  0  0  0  0  0  0  0  0  0  0
    3.6877   -1.4308   -0.0342 H   0  0  0  0  0  0  0  0  0  0  0  0
    3.8277    0.9748    0.2148 H   0  0  0  0  0  0  0  0  0  0  0  0
    1.7158    2.3814    0.2701 H   0  0  0  0  0  0  0  0  0  0  0  0
    1.4264   -2.5720   -0.1946 H   0  0  0  0  0  0  0  0  0  0  0  0
   -1.1946   -1.8870    0.9092 H   0  0  0  0  0  0  0  0  0  0  0  0
   -0.9842   -2.2989   -0.8296 H   0  0  0  0  0  0  0  0  0  0  0  0
   -2.0818   -0.2526   -1.5523 H   0  0  0  0  0  0  0  0  0  0  0  0
   -3.1143   -1.0225   -0.2974 H   0  0  0  0  0  0  0  0  0  0  0  0
   -2.1079    0.5069    1.4516 H   0  0  0  0  0  0  0  0  0  0  0  0
   -2.9786    1.3922    0.1510 H   0  0  0  0  0  0  0  0  0  0  0  0
   -0.7377    2.4034    0.7883 H   0  0  0  0  0  0  0  0  0  0  0  0
   -0.9129    2.0149   -0.9599 H   0  0  0  0  0  0  0  0  0  0  0  0
  1  2  2  0
  2  3  1  0
  3  4  2  0
  4  5  1  0
  5  6  2  0
  5  7  1  0
  7  8  1  0
  8  9  1  0
  9 10  1  0
  6  1  1  0
 10  4  1  0
  1 11  1  0
  2 12  1  0
  3 13  1  0
  6 14  1  0
  7 15  1  0
  7 16  1  0
  8 17  1  0
  8 18  1  0
  9 19  1  0
  9 20  1  0
 10 21  1  0
 10 22  1  0
M  END
>  <UniqueID>  (2) 
1

>  <SMILES>  (2) 
c1ccc2c(c1)CCCC2

>  <Energy>  (2) 
18.9119544008

>  <Genealogy>  (2) 
C1(C=CC=C2)=C2CCCC1 (source)
c1ccc2c(c1)CCCC2 (at pH 5.0)
c1ccc2c(c1)CCCC2 (tautomer)
c1ccc2c(c1)CCCC2 (3D coordinates assigned)
c1ccc2c(c1)CCCC2 (nonaromatic ring conformer: 18.9119544008 kcal/mol)

$$$$
non-aromatic puckers
     RDKit          3D

 22 23  0  0  0  0  0  0  0  0999 V2000
    2.7856   -0.8315   -0.0293 C   0  0  0  0  0  0  0  0  0  0  0  0
    2.8611    0.4889    0.1649 C   0  0  0  0  0  0  0  0  0  0  0  0
    1.6284    1.2971    0.2458 C   0  0  0  0  0  0  0  0  0  0  0  0
    0.4231    0.7164    0.1092 C   0  0  0  0  0  0  0  0  0  0  0  0
    0.3382   -0.7626   -0.0909 C   0  0  0  0  0  0  0  0  0  0  0  0
    1.4696   -1.4851   -0.1714 C   0  0  0  0  0  0  0  0  0  0  0  0
   -0.9938   -1.4325   -0.3244 C   0  0  0  0  0  0  0  0  0  0  0  0
   -2.1647   -0.5937    0.1982 C   0  0  0  0  0  0  0  0  0  0  0  0
   -2.0651    0.8504   -0.2998 C   0  0  0  0  0  0  0  0  0  0  0  0
   -0.8278    1.5431    0.2806 C   0  0  0  0  0  0  0  0  0  0  0  0
    3.6894   -1.4241   -0.0884 H   0  0  0  0  0  0  0  0  0  0  0  0
    3.8260    0.9680    0.2690 H   0  0  0  0  0  0  0  0  0  0  0  0
    1.7108    2.3616    0.4289 H   0  0  0  0  0  0  0  0  0  0  0  0
    1.4314   -2.5523   -0.3534 H   0  0  0  0  0  0  0  0  0  0  0  0
   -1.0160   -2.4244    0.1781 H   0  0  0  0  0  0  0  0  0  0  0  0
   -1.1212   -1.5974   -1.4164 H   0  0  0  0  0  0  0  0  0  0  0  0
   -2.1723   -0.6092    1.3106 H   0  0  0  0  0  0  0  0  0  0  0  0
   -3.1188   -1.0400   -0.1564 H   0  0  0  0  0  0  0  0  0  0  0  0
   -2.0175    0.8635   -1.4112 H   0  0  0  0  0  0  0  0  0  0  0  0
   -2.9741    1.4098    0.0100 H   0  0  0  0  0  0  0  0  0  0  0  0
   -0.9864    1.7252    1.3658 H   0  0  0  0  0  0  0  0  0  0  0  0
   -0.7059    2.5289   -0.2195 H   0  0  0  0  0  0  0  0  0  0  0  0
  1  2  2  0
  2  3  1  0
  3  4  2  0
  4  5  1  0
  5  6  2  0
  5  7  1  0
  7  8  1  0
  8  9  1  0
  9 10  1  0
  6  1  1  0
 10  4  1  0
  1 11  1  0
  2 12  1  0
  3 13  1  0
  6 14  1  0
  7 15  1  0
  7 16  1  0
  8 17  1  0
  8 18  1  0
  9 19  1  0
  9 20  1  0
 10 21  1  0
 10 22  1  0
M  END
>  <UniqueID>  (3) 
2

>  <SMILES>  (3) 
c1ccc2c(c1)CCCC2

>  <Energy>  (3) 
18.9119544013

>  <Genealogy>  (3) 
C1(C=CC=C2)=C2CCCC1 (source)
c1ccc2c(c1)CCCC2 (at pH 5.0)
c1ccc2c(c1)CCCC2 (tautomer)
c1ccc2c(c1)CCCC2 (3D coordinates assigned)
c1ccc2c(c1)CCCC2 (nonaromatic ring conformer: 18.9119544013 kcal/mol)

$$$$
various pHs
     RDKit          3D

 20 20  0  0  0  0  0  0  0  0999 V2000
    1.1670   -1.1098    1.2726 N   0  0  0  0  0  0  0  0  0  0  0  0
    1.3803   -0.7082   -0.1200 C   0  0  1  0  0  0  0  0  0  0  0  0
    0.1034   -0.9322   -0.9560 C   0  0  0  0  0  0  0  0  0  0  0  0
   -1.0506   -0.0860   -0.4935 C   0  0  0  0  0  0  0  0  0  0  0  0
   -1.6049    0.9784   -1.1687 C   0  0  0  0  0  0  0  0  0  0  0  0
   -2.6288    1.4745   -0.4461 N   0  0  0  0  0  0  0  0  0  0  0  0
   -2.6730    0.6914    0.6534 C   0  0  0  0  0  0  0  0  0  0  0  0
   -1.7280   -0.2671    0.6512 N   0  0  0  0  0  0  0  0  0  0  0  0
    1.8289    0.7290   -0.1988 C   0  0  0  0  0  0  0  0  0  0  0  0
    2.2131    1.2050   -1.3008 O   0  0  0  0  0  0  0  0  0  0  0  0
    1.8184    1.5379    0.9348 O   0  0  0  0  0  0  0  0  0  0  0  0
    0.9107   -2.1239    1.2876 H   0  0  0  0  0  0  0  0  0  0  0  0
    2.0803   -1.0399    1.7785 H   0  0  0  0  0  0  0  0  0  0  0  0
    2.1892   -1.3411   -0.5510 H   0  0  0  0  0  0  0  0  0  0  0  0
   -0.1940   -2.0018   -0.9107 H   0  0  0  0  0  0  0  0  0  0  0  0
    0.3249   -0.7035   -2.0218 H   0  0  0  0  0  0  0  0  0  0  0  0
   -1.2849    1.3717   -2.1246 H   0  0  0  0  0  0  0  0  0  0  0  0
   -3.3955    0.8186    1.4487 H   0  0  0  0  0  0  0  0  0  0  0  0
   -1.5713   -0.9982    1.3796 H   0  0  0  0  0  0  0  0  0  0  0  0
    2.1149    2.5053    0.8857 H   0  0  0  0  0  0  0  0  0  0  0  0
  1  2  1  0
  2  3  1  0
  3  4  1  0
  4  5  2  0
  5  6  1  0
  6  7  2  0
  7  8  1  0
  2  9  1  0
  9 10  2  0
  9 11  1  0
  8  4  1  0
  1 12  1  0
  1 13  1  0
  2 14  1  6
  3 15  1  0
  3 16  1  0
  5 17  1  0
  7 18  1  0
  8 19  1  0
 11 20  1  0
M  END
>  <UniqueID>  (4) 
3

>  <SMILES>  (4) 
N[C@@H](Cc1cnc[nH]1)C(=O)O

>  <Energy>  (4) 
41.7430888414

>  <Genealogy>  (4) 
N[C@@H](CC1=CNC=N1)C(O)=O (source)
N[C@@H](CC1=CNC=N1)C(O)=O (desalted)
(WARNING: OBABEL could not assign protonation states)
N[C@@H](Cc1cnc[nH]1)C(=O)O (tautomer)
N[C@@H](Cc1cnc[nH]1)C(=O)O (3D coordinates assigned)
N[C@@H](Cc1cnc[nH]1)C(=O)O (optimized conformer: 41.7430888414 kcal/mol)

$$$$
various pHs
     RDKit          3D

 20 20  0  0  0  0  0  0  0  0999 V2000
   -1.4187   -1.0603   -1.3220 N   0  0  0  0  0  0  0  0  0  0  0  0
   -1.6756   -0.1003   -0.2421 C   0  0  1  0  0  0  0  0  0  0  0  0
   -0.7553   -0.3515    0.9747 C   0  0  0  0  0  0  0  0  0  0  0  0
    0.7043   -0.1756    0.6589 C   0  0  0  0  0  0  0  0  0  0  0  0
    1.6141   -1.1371    0.6695 C   0  0  0  0  0  0  0  0  0  0  0  0
    2.8678   -0.5678    0.3370 N   0  0  0  0  0  0  0  0  0  0  0  0
    2.5600    0.8078    0.1480 C   0  0  0  0  0  0  0  0  0  0  0  0
    1.3069    1.0757    0.3295 N   0  0  0  0  0  0  0  0  0  0  0  0
   -1.5776    1.3210   -0.7435 C   0  0  0  0  0  0  0  0  0  0  0  0
   -1.1411    1.5652   -1.9002 O   0  0  0  0  0  0  0  0  0  0  0  0
   -1.9800    2.3810    0.0644 O   0  0  0  0  0  0  0  0  0  0  0  0
   -0.4205   -0.9955   -1.6278 H   0  0  0  0  0  0  0  0  0  0  0  0
   -1.5706   -2.0281   -0.9551 H   0  0  0  0  0  0  0  0  0  0  0  0
   -2.7247   -0.2484    0.0962 H   0  0  0  0  0  0  0  0  0  0  0  0
   -1.0238    0.3402    1.8011 H   0  0  0  0  0  0  0  0  0  0  0  0
   -0.9360   -1.3828    1.3502 H   0  0  0  0  0  0  0  0  0  0  0  0
    1.4447   -2.1825    0.8922 H   0  0  0  0  0  0  0  0  0  0  0  0
    3.7941   -1.0418    0.2572 H   0  0  0  0  0  0  0  0  0  0  0  0
    3.2927    1.5578   -0.1174 H   0  0  0  0  0  0  0  0  0  0  0  0
   -2.3608    2.2230    0.9894 H   0  0  0  0  0  0  0  0  0  0  0  0
  1  2  1  0
  2  3  1  0
  3  4  1  0
  4  5  2  0
  5  6  1  0
  6  7  1  0
  7  8  2  0
  2  9  1  0
  9 10  2  0
  9 11  1  0
  8  4  1  0
  1 12  1  0
  1 13  1  0
  2 14  1  1
  3 15  1  0
  3 16  1  0
  5 17  1  0
  6 18  1  0
  7 19  1  0
 11 20  1  0
M  END
>  <UniqueID>  (5) 
4

>  <SMILES>  (5) 
N[C@@H](Cc1c[nH]cn1)C(=O)O

>  <Energy>  (5) 
40.8532379358

>  <Genealogy>  (5) 
N[C@@H](CC1=CNC=N1)C(O)=O (source)
N[C@@H](CC1=CNC=N1)C(O)=O (desalted)
(WARNING: OBABEL could not assign protonation states)
N[C@@H](Cc1c[nH]cn1)C(=O)O (3D coordinates assigned)
N[C@@H](Cc1c[nH]cn1)C(=O)O (optimized conformer: 40.8532379358 kcal/mol)

$$$$
tautomers
     RDKit          3D

 12 12  0  0  0  0  0  0  0  0999 V2000
    2.5771   -0.0192    0.0517 O   0  0  0  0  0  0  0  0  0  0  0  0
    1.1871   -0.0625    0.0248 C   0  0  0  0  0  0  0  0  0  0  0  0
    0.4526    1.1269   -0.0108 C   0  0  0  0  0  0  0  0  0  0  0  0
   -0.9426    1.0679   -0.0375 C   0  0  0  0  0  0  0  0  0  0  0  0
   -1.5855   -0.1718   -0.0286 C   0  0  0  0  0  0  0  0  0  0  0  0
   -0.8179   -1.3389    0.0072 C   0  0  0  0  0  0  0  0  0  0  0  0
    0.5399   -1.2605    0.0329 N   0  0  0  0  0  0  0  0  0  0  0  0
    3.1231   -0.8721    0.0776 H   0  0  0  0  0  0  0  0  0  0  0  0
    0.9576    2.0844   -0.0175 H   0  0  0  0  0  0  0  0  0  0  0  0
   -1.5240    1.9804   -0.0652 H   0  0  0  0  0  0  0  0  0  0  0  0
   -2.6661   -0.2281   -0.0491 H   0  0  0  0  0  0  0  0  0  0  0  0
   -1.3014   -2.3066    0.0146 H   0  0  0  0  0  0  0  0  0  0  0  0
  1  2  1  0
  2  3  2  0
  3  4  1  0
  4  5  2  0
  5  6  1  0
  6  7  2  0
  7  2  1  0
  1  8  1  0
  3  9  1  0
  4 10  1  0
  5 11  1  0
  6 12  1  0
M  END
>  <UniqueID>  (6) 
5

>  <SMILES>  (6) 
Oc1ccccn1

>  <Energy>  (6) 
10.6882761593

>  <Genealogy>  (6) 
C1=CC=CNC(=O)1 (source)
C1=CC=CNC(=O)1 (desalted)
(WARNING: OBABEL could not assign protonation states)
Oc1ccccn1 (tautomer)
Oc1ccccn1 (3D coordinates assigned)
Oc1ccccn1 (optimized conformer: 10.6882761593 kcal/mol)

$$$$
tautomers
     RDKit          3D

 12 12  0  0  0  0  0  0  0  0999 V2000
    2.6064    0.5853   -0.1312 O   0  0  0  0  0  0  0  0  0  0  0  0
    1.3797    0.3079   -0.0693 C   0  0  0  0  0  0  0  0  0  0  0  0
    0.3688    1.3750   -0.0964 C   0  0  0  0  0  0  0  0  0  0  0  0
   -0.9275    1.0519   -0.0293 C   0  0  0  0  0  0  0  0  0  0  0  0
   -1.3574   -0.3606    0.0717 C   0  0  0  0  0  0  0  0  0  0  0  0
   -0.4557   -1.3500    0.0981 C   0  0  0  0  0  0  0  0  0  0  0  0
    0.9461   -1.0534    0.0287 N   0  0  0  0  0  0  0  0  0  0  0  0
    0.6695    2.4126   -0.1701 H   0  0  0  0  0  0  0  0  0  0  0  0
   -1.6764    1.8331   -0.0488 H   0  0  0  0  0  0  0  0  0  0  0  0
   -2.4133   -0.5928    0.1246 H   0  0  0  0  0  0  0  0  0  0  0  0
   -0.7844   -2.3788    0.1722 H   0  0  0  0  0  0  0  0  0  0  0  0
    1.6441   -1.8301    0.0498 H   0  0  0  0  0  0  0  0  0  0  0  0
  1  2  2  0
  2  3  1  0
  3  4  2  0
  4  5  1  0
  5  6  2  0
  6  7  1  0
  7  2  1  0
  3  8  1  0
  4  9  1  0
  5 10  1  0
  6 11  1  0
  7 12  1  0
M  END
>  <UniqueID>  (7) 
6

>  <SMILES>  (7) 
O=c1cccc[nH]1

>  <Energy>  (7) 
7.61519419177

>  <Genealogy>  (7) 
C1=CC=CNC(=O)1 (source)
C1=CC=CNC(=O)1 (desalted)
(WARNING: OBABEL could not assign protonation states)
O=c1cccc[nH]1 (3D coordinates assigned)
O=c1cccc[nH]1 (optimized conformer: 7.61519419177 kcal/mol)

$$$$
double bonds
     RDKit          3D

  9  8  0  0  0  0  0  0  0  0999 V2000
   -1.1457    0.2056   -0.0546 C   0  0  0  0  0  0  0  0  0  0  0  0
    0.1409   -0.5676   -0.0142 C   0  0  0  0  0  0  0  0  0  0  0  0
    0.0678   -2.3264   -0.0861 Cl  0  0  0  0  0  0  0  0  0  0  0  0
    1.3352    0.0418    0.0745 C   0  0  0  0  0  0  0  0  0  0  0  0
    2.4730   -0.7015    0.1080 F   0  0  0  0  0  0  0  0  0  0  0  0
    1.5544    2.1509    0.1679 I   0  0  0  0  0  0  0  0  0  0  0  0
   -1.1581    0.8769   -0.9390 H   0  0  0  0  0  0  0  0  0  0  0  0
   -1.2570    0.8070    0.8721 H   0  0  0  0  0  0  0  0  0  0  0  0
   -2.0104   -0.4866   -0.1286 H   0  0  0  0  0  0  0  0  0  0  0  0
  1  2  1  0
  2  3  1  0
  2  4  2  0
  4  5  1  0
  4  6  1  0
  1  7  1  0
  1  8  1  0
  1  9  1  0
M  END
>  <UniqueID>  (8) 
7

>  <SMILES>  (8) 
C/C(Cl)=C(/F)I

>  <Energy>  (8) 
2.96400935766

>  <Genealogy>  (8) 
FC(I)=C(Cl)C (source)
FC(I)=C(Cl)C (desalted)
(WARNING: OBABEL could not assign protonation states)
C/C(Cl)=C(/F)I (cis-trans isomerization)
C/C(Cl)=C(/F)I (3D coordinates assigned)
C/C(Cl)=C(/F)I (optimized conformer: 2.96400935766 kcal/mol)

$$$$
chirality
     RDKit          3D

 14 13  0  0  0  0  0  0  0  0999 V2000
   -1.2910    0.9911   -0.3300 C   0  0  0  0  0  0  0  0  0  0  0  0
   -0.6999   -0.3959   -0.6103 C   0  0  2  0  0  0  0  0  0  0  0  0
   -0.2389   -0.4148   -1.9167 F   0  0  0  0  0  0  0  0  0  0  0  0
   -2.2854   -1.8472   -0.5060 I   0  0  0  0  0  0  0  0  0  0  0  0
    0.4649   -0.7822    0.3433 C   0  0  2  0  0  0  0  0  0  0  0  0
    1.6725    0.1507    0.1966 C   0  0  0  0  0  0  0  0  0  0  0  0
    0.8825   -2.0635    0.0239 F   0  0  0  0  0  0  0  0  0  0  0  0
   -0.1128   -0.8093    2.4211 I   0  0  0  0  0  0  0  0  0  0  0  0
   -2.1261    1.1886   -1.0349 H   0  0  0  0  0  0  0  0  0  0  0  0
   -0.5317    1.7851   -0.4825 H   0  0  0  0  0  0  0  0  0  0  0  0
   -1.6897    1.0569    0.7027 H   0  0  0  0  0  0  0  0  0  0  0  0
    2.5234   -0.2435    0.7917 H   0  0  0  0  0  0  0  0  0  0  0  0
    1.4373    1.1684    0.5708 H   0  0  0  0  0  0  0  0  0  0  0  0
    1.9950    0.2155   -0.8640 H   0  0  0  0  0  0  0  0  0  0  0  0
  1  2  1  0
  2  3  1  6
  2  4  1  0
  2  5  1  0
  5  6  1  0
  5  7  1  6
  5  8  1  0
  1  9  1  0
  1 10  1  0
  1 11  1  0
  6 12  1  0
  6 13  1  0
  6 14  1  0
M  END
>  <UniqueID>  (9) 
8

>  <SMILES>  (9) 
C[C@](F)(I)[C@](C)(F)I

>  <Energy>  (9) 
6.96360669778

>  <Genealogy>  (9) 
I[C@@](C)(F)C(I)(F)C (source)
I[C@@](C)(F)C(I)(F)C (desalted)
(WARNING: OBABEL could not assign protonation states)
C[C@](F)(I)[C@](C)(F)I (chirality)
C[C@](F)(I)[C@](C)(F)I (3D coordinates assigned)
C[C@](F)(I)[C@](C)(F)I (optimized conformer: 6.96360669778 kcal/mol)

$$$$
