EMPTY MOLECULE DESCRIBING GYPSUM PARAMETERS
     RDKit          2D

  0  0  0  0  0  0  0  0  0  0999 V2000
M  END
>  <source>  (1) 
sample_molecules.smi

>  <output_file>  (1) 
output.sdf

>  <separate_output_files>  (1) 
False

>  <num_processors>  (1) 
-1

>  <start_time>  (1) 
2018-11-07 16:39:35.151440

>  <end_time>  (1) 
2018-11-07 16:39:35.809583

>  <run_time>  (1) 
0:00:00.658143

>  <min_ph>  (1) 
6.4

>  <max_ph>  (1) 
8.4

>  <ph_std_dev>  (1) 
1.0

>  <thoroughness>  (1) 
3

>  <max_variants_per_compound>  (1) 
5

>  <second_embed>  (1) 
False

>  <2d_output_only>  (1) 
False

>  <skip_optimize_geometry>  (1) 
False

>  <skip_alternate_ring_conformations>  (1) 
False

>  <skip_adding_hydrogen>  (1) 
False

>  <skip_making_tautomers>  (1) 
False

>  <skip_ennumerate_chiral_mol>  (1) 
False

>  <skip_ennumerate_double_bonds>  (1) 
False

>  <multithread_mode>  (1) 
multithreading

>  <Parallelizer>  (1) 
<gypsum.parallelizer.Parallelizer object at 0x7f0cb75531d0>

$$$$
non-aromatic puckers
     RDKit          3D

 22 23  0  0  0  0  0  0  0  0999 V2000
    2.8344    0.5457   -0.1373 C   0  0  0  0  0  0  0  0  0  0  0  0
    2.7673   -0.8209    0.1361 C   0  0  0  0  0  0  0  0  0  0  0  0
    1.5268   -1.4481    0.2716 C   0  0  0  0  0  0  0  0  0  0  0  0
    0.3382   -0.7146    0.1250 C   0  0  0  0  0  0  0  0  0  0  0  0
    0.4066    0.6780   -0.1252 C   0  0  0  0  0  0  0  0  0  0  0  0
    1.6613    1.2914   -0.2723 C   0  0  0  0  0  0  0  0  0  0  0  0
   -0.8397    1.5030   -0.3466 C   0  0  0  0  0  0  0  0  0  0  0  0
   -2.0962    0.8357    0.2205 C   0  0  0  0  0  0  0  0  0  0  0  0
   -2.1681   -0.6262   -0.2196 C   0  0  0  0  0  0  0  0  0  0  0  0
   -0.9828   -1.4135    0.3470 C   0  0  0  0  0  0  0  0  0  0  0  0
    3.7971    1.0280   -0.2471 H   0  0  0  0  0  0  0  0  0  0  0  0
    3.6781   -1.3953    0.2455 H   0  0  0  0  0  0  0  0  0  0  0  0
    1.4917   -2.5076    0.4941 H   0  0  0  0  0  0  0  0  0  0  0  0
    1.7301    2.3493   -0.4948 H   0  0  0  0  0  0  0  0  0  0  0  0
   -0.9705    1.6573   -1.4397 H   0  0  0  0  0  0  0  0  0  0  0  0
   -0.7222    2.5014    0.1284 H   0  0  0  0  0  0  0  0  0  0  0  0
   -2.9958    1.3771   -0.1437 H   0  0  0  0  0  0  0  0  0  0  0  0
   -2.0850    0.8946    1.3314 H   0  0  0  0  0  0  0  0  0  0  0  0
   -3.1163   -1.0768    0.1450 H   0  0  0  0  0  0  0  0  0  0  0  0
   -2.1633   -0.6859   -1.3305 H   0  0  0  0  0  0  0  0  0  0  0  0
   -0.9640   -2.4185   -0.1281 H   0  0  0  0  0  0  0  0  0  0  0  0
   -1.1277   -1.5542    1.4402 H   0  0  0  0  0  0  0  0  0  0  0  0
  1  2  2  0
  2  3  1  0
  3  4  2  0
  4  5  1  0
  5  6  2  0
  5  7  1  0
  7  8  1  0
  8  9  1  0
  9 10  1  0
  6  1  1  0
 10  4  1  0
  1 11  1  0
  2 12  1  0
  3 13  1  0
  6 14  1  0
  7 15  1  0
  7 16  1  0
  8 17  1  0
  8 18  1  0
  9 19  1  0
  9 20  1  0
 10 21  1  0
 10 22  1  0
M  END
>  <UniqueID>  (2) 
1

>  <SMILES>  (2) 
c1ccc2c(c1)CCCC2

>  <Energy>  (2) 
20.582423814036545

>  <Genealogy>  (2) 
c1ccc2c(c1)CCCC2 (3D coordinates assigned)
c1ccc2c(c1)CCCC2 (nonaromatic ring conformer: 20.582423814036545 kcal/mol)

$$$$
non-aromatic puckers
     RDKit          3D

 22 23  0  0  0  0  0  0  0  0999 V2000
    2.8347    0.5529   -0.0939 C   0  0  0  0  0  0  0  0  0  0  0  0
    2.7669   -0.8282    0.0927 C   0  0  0  0  0  0  0  0  0  0  0  0
    1.5261   -1.4619    0.1887 C   0  0  0  0  0  0  0  0  0  0  0  0
    0.3381   -0.7174    0.1085 C   0  0  0  0  0  0  0  0  0  0  0  0
    0.4067    0.6808   -0.1086 C   0  0  0  0  0  0  0  0  0  0  0  0
    1.6620    1.3053   -0.1894 C   0  0  0  0  0  0  0  0  0  0  0  0
   -0.8380    1.5364   -0.1469 C   0  0  0  0  0  0  0  0  0  0  0  0
   -2.1018    0.7244   -0.4457 C   0  0  0  0  0  0  0  0  0  0  0  0
   -2.1625   -0.5149    0.4467 C   0  0  0  0  0  0  0  0  0  0  0  0
   -0.9845   -1.4468    0.1473 C   0  0  0  0  0  0  0  0  0  0  0  0
    3.7978    1.0421   -0.1626 H   0  0  0  0  0  0  0  0  0  0  0  0
    3.6774   -1.4094    0.1610 H   0  0  0  0  0  0  0  0  0  0  0  0
    1.4903   -2.5361    0.3232 H   0  0  0  0  0  0  0  0  0  0  0  0
    1.7316    2.3778   -0.3239 H   0  0  0  0  0  0  0  0  0  0  0  0
   -0.9513    2.0378    0.8387 H   0  0  0  0  0  0  0  0  0  0  0  0
   -0.7310    2.3258   -0.9224 H   0  0  0  0  0  0  0  0  0  0  0  0
   -2.1090    0.4191   -1.5155 H   0  0  0  0  0  0  0  0  0  0  0  0
   -2.9968    1.3573   -0.2625 H   0  0  0  0  0  0  0  0  0  0  0  0
   -2.1393   -0.2104    1.5164 H   0  0  0  0  0  0  0  0  0  0  0  0
   -3.1153   -1.0569    0.2638 H   0  0  0  0  0  0  0  0  0  0  0  0
   -1.1469   -1.9347   -0.8383 H   0  0  0  0  0  0  0  0  0  0  0  0
   -0.9551   -2.2430    0.9228 H   0  0  0  0  0  0  0  0  0  0  0  0
  1  2  2  0
  2  3  1  0
  3  4  2  0
  4  5  1  0
  5  6  2  0
  5  7  1  0
  7  8  1  0
  8  9  1  0
  9 10  1  0
  6  1  1  0
 10  4  1  0
  1 11  1  0
  2 12  1  0
  3 13  1  0
  6 14  1  0
  7 15  1  0
  7 16  1  0
  8 17  1  0
  8 18  1  0
  9 19  1  0
  9 20  1  0
 10 21  1  0
 10 22  1  0
M  END
>  <UniqueID>  (3) 
2

>  <SMILES>  (3) 
c1ccc2c(c1)CCCC2

>  <Energy>  (3) 
20.58242381412196

>  <Genealogy>  (3) 
c1ccc2c(c1)CCCC2 (3D coordinates assigned)
c1ccc2c(c1)CCCC2 (nonaromatic ring conformer: 20.58242381412196 kcal/mol)

$$$$
non-aromatic puckers
     RDKit          3D

 22 23  0  0  0  0  0  0  0  0999 V2000
    2.8021    0.5274   -0.2924 C   0  0  0  0  0  0  0  0  0  0  0  0
    2.7344   -0.8522   -0.0757 C   0  0  0  0  0  0  0  0  0  0  0  0
    1.5078   -1.4579    0.2139 C   0  0  0  0  0  0  0  0  0  0  0  0
    0.3386   -0.6843    0.2708 C   0  0  0  0  0  0  0  0  0  0  0  0
    0.4079    0.7021    0.0560 C   0  0  0  0  0  0  0  0  0  0  0  0
    1.6432    1.3066   -0.2213 C   0  0  0  0  0  0  0  0  0  0  0  0
   -0.8564    1.5081    0.1561 C   0  0  0  0  0  0  0  0  0  0  0  0
   -1.9936    0.7832   -0.5771 C   0  0  0  0  0  0  0  0  0  0  0  0
   -2.1512   -0.7076   -0.1778 C   0  0  0  0  0  0  0  0  0  0  0  0
   -0.9852   -1.2948    0.6467 C   0  0  0  0  0  0  0  0  0  0  0  0
    3.7542    0.9939   -0.5100 H   0  0  0  0  0  0  0  0  0  0  0  0
    3.6347   -1.4511   -0.1236 H   0  0  0  0  0  0  0  0  0  0  0  0
    1.4710   -2.5245    0.3974 H   0  0  0  0  0  0  0  0  0  0  0  0
    1.7091    2.3754   -0.3822 H   0  0  0  0  0  0  0  0  0  0  0  0
   -0.7214    2.5177   -0.2898 H   0  0  0  0  0  0  0  0  0  0  0  0
   -1.1232    1.6346    1.2276 H   0  0  0  0  0  0  0  0  0  0  0  0
   -2.9478    1.3220   -0.3905 H   0  0  0  0  0  0  0  0  0  0  0  0
   -1.7951    0.8427   -1.6703 H   0  0  0  0  0  0  0  0  0  0  0  0
   -3.0902   -0.8341    0.4039 H   0  0  0  0  0  0  0  0  0  0  0  0
   -2.2679   -1.3099   -1.1055 H   0  0  0  0  0  0  0  0  0  0  0  0
   -1.1639   -1.0914    1.7248 H   0  0  0  0  0  0  0  0  0  0  0  0
   -0.9648   -2.3984    0.5123 H   0  0  0  0  0  0  0  0  0  0  0  0
  1  2  2  0
  2  3  1  0
  3  4  2  0
  4  5  1  0
  5  6  2  0
  5  7  1  0
  7  8  1  0
  8  9  1  0
  9 10  1  0
  6  1  1  0
 10  4  1  0
  1 11  1  0
  2 12  1  0
  3 13  1  0
  6 14  1  0
  7 15  1  0
  7 16  1  0
  8 17  1  0
  8 18  1  0
  9 19  1  0
  9 20  1  0
 10 21  1  0
 10 22  1  0
M  END
>  <UniqueID>  (4) 
3

>  <SMILES>  (4) 
c1ccc2c(c1)CCCC2

>  <Energy>  (4) 
25.81976105473621

>  <Genealogy>  (4) 
c1ccc2c(c1)CCCC2 (3D coordinates assigned)
c1ccc2c(c1)CCCC2 (nonaromatic ring conformer: 25.81976105473621 kcal/mol)

$$$$
various pHs
     RDKit          3D

 20 20  0  0  0  0  0  0  0  0999 V2000
   -1.5050   -0.8514    0.9350 N   0  0  0  0  0  0  0  0  0  0  0  0
   -1.3826    0.3793    0.1394 C   0  0  1  0  0  0  0  0  0  0  0  0
   -0.3739    0.1957   -1.0150 C   0  0  0  0  0  0  0  0  0  0  0  0
    1.0153   -0.0661   -0.5134 C   0  0  0  0  0  0  0  0  0  0  0  0
    1.7951    0.8072    0.2126 C   0  0  0  0  0  0  0  0  0  0  0  0
    2.9671    0.2037    0.4588 N   0  0  0  0  0  0  0  0  0  0  0  0
    2.8774   -1.0093   -0.1190 C   0  0  0  0  0  0  0  0  0  0  0  0
    1.6908   -1.2126   -0.7299 N   0  0  0  0  0  0  0  0  0  0  0  0
   -2.7221    0.7982   -0.4162 C   0  0  0  0  0  0  0  0  0  0  0  0
   -2.8424    1.9149   -0.9863 O   0  0  0  0  0  0  0  0  0  0  0  0
   -3.8339   -0.0294   -0.3034 O   0  0  0  0  0  0  0  0  0  0  0  0
   -1.7941   -1.6556    0.3310 H   0  0  0  0  0  0  0  0  0  0  0  0
   -0.5916   -1.0774    1.3908 H   0  0  0  0  0  0  0  0  0  0  0  0
   -2.2124   -0.7160    1.6938 H   0  0  0  0  0  0  0  0  0  0  0  0
   -1.0280    1.1986    0.8050 H   0  0  0  0  0  0  0  0  0  0  0  0
   -0.6984   -0.6481   -1.6629 H   0  0  0  0  0  0  0  0  0  0  0  0
   -0.3446    1.1121   -1.6438 H   0  0  0  0  0  0  0  0  0  0  0  0
    1.5318    1.8058    0.5361 H   0  0  0  0  0  0  0  0  0  0  0  0
    3.7794    0.5936    0.9858 H   0  0  0  0  0  0  0  0  0  0  0  0
    3.6720   -1.7433   -0.0983 H   0  0  0  0  0  0  0  0  0  0  0  0
  1  2  1  0
  2  3  1  0
  3  4  1  0
  4  5  2  0
  5  6  1  0
  6  7  1  0
  7  8  2  0
  2  9  1  0
  9 10  2  0
  9 11  1  0
  8  4  1  0
  1 12  1  0
  1 13  1  0
  1 14  1  0
  2 15  1  1
  3 16  1  0
  3 17  1  0
  5 18  1  0
  6 19  1  0
  7 20  1  0
M  CHG  2   1   1  11  -1
M  END
>  <UniqueID>  (5) 
4

>  <SMILES>  (5) 
[NH3+][C@@H](Cc1c[nH]cn1)C(=O)[O-]

>  <Energy>  (5) 
42.58719244918737

>  <Genealogy>  (5) 
[NH3+][C@@H](Cc1c[nH]cn1)C(=O)[O-] (protonated)
[NH3+][C@@H](Cc1c[nH]cn1)C(=O)[O-] (3D coordinates assigned)
[NH3+][C@@H](Cc1c[nH]cn1)C(=O)[O-] (optimized conformer: 42.58719244918737 kcal/mol)

$$$$
various pHs
     RDKit          3D

 19 19  0  0  0  0  0  0  0  0999 V2000
   -1.1723   -0.7682    1.4053 N   0  0  0  0  0  0  0  0  0  0  0  0
   -1.4158    0.1973    0.3274 C   0  0  1  0  0  0  0  0  0  0  0  0
   -0.5453   -0.1413   -0.8954 C   0  0  0  0  0  0  0  0  0  0  0  0
    0.9162   -0.1180   -0.5580 C   0  0  0  0  0  0  0  0  0  0  0  0
    1.6439    0.9866   -0.1729 C   0  0  0  0  0  0  0  0  0  0  0  0
    2.9110    0.5950    0.0255 N   0  0  0  0  0  0  0  0  0  0  0  0
    2.9277   -0.7244   -0.2431 C   0  0  0  0  0  0  0  0  0  0  0  0
    1.7183   -1.2005   -0.6081 N   0  0  0  0  0  0  0  0  0  0  0  0
   -2.8727    0.2433   -0.0681 C   0  0  0  0  0  0  0  0  0  0  0  0
   -3.7093   -0.5568    0.4297 O   0  0  0  0  0  0  0  0  0  0  0  0
   -3.3040    1.1902   -0.9891 O   0  0  0  0  0  0  0  0  0  0  0  0
   -1.4918   -1.7187    1.1055 H   0  0  0  0  0  0  0  0  0  0  0  0
   -1.7338   -0.4898    2.2431 H   0  0  0  0  0  0  0  0  0  0  0  0
   -1.1380    1.2102    0.6942 H   0  0  0  0  0  0  0  0  0  0  0  0
   -0.7283    0.5946   -1.7084 H   0  0  0  0  0  0  0  0  0  0  0  0
   -0.8188   -1.1486   -1.2798 H   0  0  0  0  0  0  0  0  0  0  0  0
    1.2810    1.9986   -0.0487 H   0  0  0  0  0  0  0  0  0  0  0  0
    3.7160    1.1891    0.3232 H   0  0  0  0  0  0  0  0  0  0  0  0
    3.8159   -1.3385   -0.1760 H   0  0  0  0  0  0  0  0  0  0  0  0
  1  2  1  0
  2  3  1  0
  3  4  1  0
  4  5  2  0
  5  6  1  0
  6  7  1  0
  7  8  2  0
  2  9  1  0
  9 10  2  0
  9 11  1  0
  8  4  1  0
  1 12  1  0
  1 13  1  0
  2 14  1  1
  3 15  1  0
  3 16  1  0
  5 17  1  0
  6 18  1  0
  7 19  1  0
M  CHG  1  11  -1
M  END
>  <UniqueID>  (6) 
5

>  <SMILES>  (6) 
N[C@@H](Cc1c[nH]cn1)C(=O)[O-]

>  <Energy>  (6) 
41.56333636577724

>  <Genealogy>  (6) 
N[C@@H](Cc1c[nH]cn1)C(=O)[O-] (protonated)
N[C@@H](Cc1c[nH]cn1)C(=O)[O-] (3D coordinates assigned)
N[C@@H](Cc1c[nH]cn1)C(=O)[O-] (optimized conformer: 41.56333636577724 kcal/mol)

$$$$
various pHs
     RDKit          3D

 20 20  0  0  0  0  0  0  0  0999 V2000
   -2.4424   -0.9917   -0.3482 N   0  0  0  0  0  0  0  0  0  0  0  0
   -1.1065   -0.6524    0.1556 C   0  0  1  0  0  0  0  0  0  0  0  0
   -0.3675    0.2586   -0.8461 C   0  0  0  0  0  0  0  0  0  0  0  0
    1.0473    0.5241   -0.4187 C   0  0  0  0  0  0  0  0  0  0  0  0
    1.5854    1.7447   -0.0786 C   0  0  0  0  0  0  0  0  0  0  0  0
    2.8837    1.5793    0.2442 N   0  0  0  0  0  0  0  0  0  0  0  0
    3.1017    0.2554    0.0885 C   0  0  0  0  0  0  0  0  0  0  0  0
    2.0041   -0.4112   -0.3150 N   0  0  0  0  0  0  0  0  0  0  0  0
   -1.2124    0.0031    1.5090 C   0  0  0  0  0  0  0  0  0  0  0  0
   -1.8426    1.0851    1.6480 O   0  0  0  0  0  0  0  0  0  0  0  0
   -0.6108   -0.5861    2.6138 O   0  0  0  0  0  0  0  0  0  0  0  0
   -2.3584   -1.5086   -1.2538 H   0  0  0  0  0  0  0  0  0  0  0  0
   -2.9336   -1.6113    0.3372 H   0  0  0  0  0  0  0  0  0  0  0  0
   -3.0116   -0.1268   -0.4998 H   0  0  0  0  0  0  0  0  0  0  0  0
   -0.5269   -1.5969    0.2670 H   0  0  0  0  0  0  0  0  0  0  0  0
   -0.3419   -0.2290   -1.8442 H   0  0  0  0  0  0  0  0  0  0  0  0
   -0.9150    1.2206   -0.9562 H   0  0  0  0  0  0  0  0  0  0  0  0
    1.0683    2.6950   -0.0630 H   0  0  0  0  0  0  0  0  0  0  0  0
    4.0581   -0.2177    0.2678 H   0  0  0  0  0  0  0  0  0  0  0  0
    1.9211   -1.4341   -0.5074 H   0  0  0  0  0  0  0  0  0  0  0  0
  1  2  1  0
  2  3  1  0
  3  4  1  0
  4  5  2  0
  5  6  1  0
  6  7  2  0
  7  8  1  0
  2  9  1  0
  9 10  2  0
  9 11  1  0
  8  4  1  0
  1 12  1  0
  1 13  1  0
  1 14  1  0
  2 15  1  1
  3 16  1  0
  3 17  1  0
  5 18  1  0
  7 19  1  0
  8 20  1  0
M  CHG  2   1   1  11  -1
M  END
>  <UniqueID>  (7) 
6

>  <SMILES>  (7) 
[NH3+][C@@H](Cc1cnc[nH]1)C(=O)[O-]

>  <Energy>  (7) 
41.62501567256705

>  <Genealogy>  (7) 
[NH3+][C@@H](Cc1c[nH]cn1)C(=O)[O-] (protonated)
[NH3+][C@@H](Cc1cnc[nH]1)C(=O)[O-] (tautomer)
[NH3+][C@@H](Cc1cnc[nH]1)C(=O)[O-] (3D coordinates assigned)
[NH3+][C@@H](Cc1cnc[nH]1)C(=O)[O-] (optimized conformer: 41.62501567256705 kcal/mol)

$$$$
various pHs
     RDKit          3D

 19 19  0  0  0  0  0  0  0  0999 V2000
   -1.5528   -0.8569    0.9264 N   0  0  0  0  0  0  0  0  0  0  0  0
   -1.4234    0.2517   -0.0247 C   0  0  1  0  0  0  0  0  0  0  0  0
   -0.2119    0.0276   -0.9509 C   0  0  0  0  0  0  0  0  0  0  0  0
    1.0873    0.0842   -0.2010 C   0  0  0  0  0  0  0  0  0  0  0  0
    1.6203    1.1815    0.4384 C   0  0  0  0  0  0  0  0  0  0  0  0
    2.8027    0.8400    0.9880 N   0  0  0  0  0  0  0  0  0  0  0  0
    2.9589   -0.4621    0.6646 C   0  0  0  0  0  0  0  0  0  0  0  0
    1.9333   -0.9477   -0.0595 N   0  0  0  0  0  0  0  0  0  0  0  0
   -2.6751    0.3758   -0.8543 C   0  0  0  0  0  0  0  0  0  0  0  0
   -2.8315    1.3720   -1.6090 O   0  0  0  0  0  0  0  0  0  0  0  0
   -3.6669   -0.5973   -0.7981 O   0  0  0  0  0  0  0  0  0  0  0  0
   -2.3636   -0.6560    1.5567 H   0  0  0  0  0  0  0  0  0  0  0  0
   -0.7134   -0.8640    1.5500 H   0  0  0  0  0  0  0  0  0  0  0  0
   -1.2915    1.2035    0.5391 H   0  0  0  0  0  0  0  0  0  0  0  0
   -0.3089   -0.9596   -1.4540 H   0  0  0  0  0  0  0  0  0  0  0  0
   -0.1850    0.8095   -1.7409 H   0  0  0  0  0  0  0  0  0  0  0  0
    1.1797    2.1678    0.5005 H   0  0  0  0  0  0  0  0  0  0  0  0
    3.8183   -1.0511    0.9562 H   0  0  0  0  0  0  0  0  0  0  0  0
    1.8235   -1.9188   -0.4273 H   0  0  0  0  0  0  0  0  0  0  0  0
  1  2  1  0
  2  3  1  0
  3  4  1  0
  4  5  2  0
  5  6  1  0
  6  7  2  0
  7  8  1  0
  2  9  1  0
  9 10  2  0
  9 11  1  0
  8  4  1  0
  1 12  1  0
  1 13  1  0
  2 14  1  1
  3 15  1  0
  3 16  1  0
  5 17  1  0
  7 18  1  0
  8 19  1  0
M  CHG  1  11  -1
M  END
>  <UniqueID>  (8) 
7

>  <SMILES>  (8) 
N[C@@H](Cc1cnc[nH]1)C(=O)[O-]

>  <Energy>  (8) 
41.29216128156548

>  <Genealogy>  (8) 
N[C@@H](Cc1c[nH]cn1)C(=O)[O-] (protonated)
N[C@@H](Cc1cnc[nH]1)C(=O)[O-] (tautomer)
N[C@@H](Cc1cnc[nH]1)C(=O)[O-] (3D coordinates assigned)
N[C@@H](Cc1cnc[nH]1)C(=O)[O-] (optimized conformer: 41.29216128156548 kcal/mol)

$$$$
various pHs
     RDKit          3D

 21 21  0  0  0  0  0  0  0  0999 V2000
   -1.7719    0.9543    0.7262 N   0  0  0  0  0  0  0  0  0  0  0  0
   -1.6832    0.1096   -0.4737 C   0  0  1  0  0  0  0  0  0  0  0  0
   -0.3701    0.3688   -1.2466 C   0  0  0  0  0  0  0  0  0  0  0  0
    0.8615    0.1054   -0.4253 C   0  0  0  0  0  0  0  0  0  0  0  0
    1.7286    1.0569    0.0708 C   0  0  0  0  0  0  0  0  0  0  0  0
    2.7120    0.4221    0.7336 N   0  0  0  0  0  0  0  0  0  0  0  0
    2.4355   -0.8921    0.6269 C   0  0  0  0  0  0  0  0  0  0  0  0
    1.3109   -1.1158   -0.0790 N   0  0  0  0  0  0  0  0  0  0  0  0
   -1.8524   -1.3520   -0.1358 C   0  0  0  0  0  0  0  0  0  0  0  0
   -1.9522   -2.2011   -1.0605 O   0  0  0  0  0  0  0  0  0  0  0  0
   -1.9083   -1.7777    1.1867 O   0  0  0  0  0  0  0  0  0  0  0  0
   -2.7116    0.8371    1.1709 H   0  0  0  0  0  0  0  0  0  0  0  0
   -1.0317    0.7013    1.4207 H   0  0  0  0  0  0  0  0  0  0  0  0
   -1.6617    1.9601    0.4610 H   0  0  0  0  0  0  0  0  0  0  0  0
   -2.5237    0.3856   -1.1498 H   0  0  0  0  0  0  0  0  0  0  0  0
   -0.3354   -0.2603   -2.1621 H   0  0  0  0  0  0  0  0  0  0  0  0
   -0.3624    1.4280   -1.5848 H   0  0  0  0  0  0  0  0  0  0  0  0
    1.6506    2.1306   -0.0400 H   0  0  0  0  0  0  0  0  0  0  0  0
    3.5238    0.8574    1.2246 H   0  0  0  0  0  0  0  0  0  0  0  0
    3.0487   -1.6758    1.0524 H   0  0  0  0  0  0  0  0  0  0  0  0
    0.8929   -2.0424   -0.3164 H   0  0  0  0  0  0  0  0  0  0  0  0
  1  2  1  0
  2  3  1  0
  3  4  1  0
  4  5  2  0
  5  6  1  0
  6  7  1  0
  7  8  2  0
  2  9  1  0
  9 10  2  0
  9 11  1  0
  8  4  1  0
  1 12  1  0
  1 13  1  0
  1 14  1  0
  2 15  1  6
  3 16  1  0
  3 17  1  0
  5 18  1  0
  6 19  1  0
  7 20  1  0
  8 21  1  0
M  CHG  3   1   1   8   1  11  -1
M  END
>  <UniqueID>  (9) 
8

>  <SMILES>  (9) 
[NH3+][C@@H](Cc1c[nH]c[nH+]1)C(=O)[O-]

>  <Energy>  (9) 
45.3331012841921

>  <Genealogy>  (9) 
[NH3+][C@@H](Cc1c[nH]c[nH+]1)C(=O)[O-] (protonated)
[NH3+][C@@H](Cc1c[nH]c[nH+]1)C(=O)[O-] (3D coordinates assigned)
[NH3+][C@@H](Cc1c[nH]c[nH+]1)C(=O)[O-] (optimized conformer: 45.3331012841921 kcal/mol)

$$$$
tautomers
     RDKit          3D

 12 12  0  0  0  0  0  0  0  0999 V2000
    0.0171    2.2062    1.4286 O   0  0  0  0  0  0  0  0  0  0  0  0
    0.0089    1.1487    0.7438 C   0  0  0  0  0  0  0  0  0  0  0  0
   -1.1143    0.8241   -0.0248 C   0  0  0  0  0  0  0  0  0  0  0  0
   -1.1100   -0.3508   -0.7789 C   0  0  0  0  0  0  0  0  0  0  0  0
    0.0093   -1.1844   -0.7578 C   0  0  0  0  0  0  0  0  0  0  0  0
    1.1127   -0.8280    0.0215 C   0  0  0  0  0  0  0  0  0  0  0  0
    1.0927    0.3216    0.7515 N   0  0  0  0  0  0  0  0  0  0  0  0
   -1.9807    1.4739   -0.0383 H   0  0  0  0  0  0  0  0  0  0  0  0
   -1.9719   -0.6145   -1.3781 H   0  0  0  0  0  0  0  0  0  0  0  0
    0.0222   -2.0974   -1.3390 H   0  0  0  0  0  0  0  0  0  0  0  0
    1.9852   -1.4687    0.0439 H   0  0  0  0  0  0  0  0  0  0  0  0
    1.9288    0.5692    1.3276 H   0  0  0  0  0  0  0  0  0  0  0  0
  1  2  2  0
  2  3  1  0
  3  4  2  0
  4  5  1  0
  5  6  2  0
  6  7  1  0
  7  2  1  0
  3  8  1  0
  4  9  1  0
  5 10  1  0
  6 11  1  0
  7 12  1  0
M  END
>  <UniqueID>  (10) 
9

>  <SMILES>  (10) 
O=c1cccc[nH]1

>  <Energy>  (10) 
10.989887207274641

>  <Genealogy>  (10) 
O=c1cccc[nH]1 (3D coordinates assigned)
O=c1cccc[nH]1 (optimized conformer: 10.989887207274641 kcal/mol)

$$$$
tautomers
     RDKit          3D

 12 12  0  0  0  0  0  0  0  0999 V2000
    2.3181    0.4552   -1.0612 O   0  0  0  0  0  0  0  0  0  0  0  0
    1.0309    0.1875   -0.6032 C   0  0  0  0  0  0  0  0  0  0  0  0
    0.7264    0.2670    0.7624 C   0  0  0  0  0  0  0  0  0  0  0  0
   -0.5746   -0.0076    1.1896 C   0  0  0  0  0  0  0  0  0  0  0  0
   -1.5529   -0.3565    0.2565 C   0  0  0  0  0  0  0  0  0  0  0  0
   -1.2122   -0.4256   -1.0966 C   0  0  0  0  0  0  0  0  0  0  0  0
    0.0605   -0.1547   -1.4935 N   0  0  0  0  0  0  0  0  0  0  0  0
    3.0634    0.7126   -0.4246 H   0  0  0  0  0  0  0  0  0  0  0  0
    1.4875    0.5379    1.4829 H   0  0  0  0  0  0  0  0  0  0  0  0
   -0.8240    0.0500    2.2413 H   0  0  0  0  0  0  0  0  0  0  0  0
   -2.5639   -0.5711    0.5778 H   0  0  0  0  0  0  0  0  0  0  0  0
   -1.9592   -0.6947   -1.8314 H   0  0  0  0  0  0  0  0  0  0  0  0
  1  2  1  0
  2  3  2  0
  3  4  1  0
  4  5  2  0
  5  6  1  0
  6  7  2  0
  7  2  1  0
  1  8  1  0
  3  9  1  0
  4 10  1  0
  5 11  1  0
  6 12  1  0
M  END
>  <UniqueID>  (11) 
10

>  <SMILES>  (11) 
Oc1ccccn1

>  <Energy>  (11) 
10.987552411814836

>  <Genealogy>  (11) 
Oc1ccccn1 (tautomer)
Oc1ccccn1 (3D coordinates assigned)
Oc1ccccn1 (optimized conformer: 10.987552411814836 kcal/mol)

$$$$
double bonds
     RDKit          3D

  9  8  0  0  0  0  0  0  0  0999 V2000
   -1.2370    0.0453   -0.0666 C   0  0  0  0  0  0  0  0  0  0  0  0
    0.2181    0.4149   -0.0698 C   0  0  0  0  0  0  0  0  0  0  0  0
    0.6535    2.0967   -0.3737 Cl  0  0  0  0  0  0  0  0  0  0  0  0
    1.1582   -0.5198    0.1544 C   0  0  0  0  0  0  0  0  0  0  0  0
    0.7956   -1.8103    0.3862 F   0  0  0  0  0  0  0  0  0  0  0  0
    3.2337   -0.0837    0.1673 I   0  0  0  0  0  0  0  0  0  0  0  0
   -1.8652    0.9382   -0.2681 H   0  0  0  0  0  0  0  0  0  0  0  0
   -1.4369   -0.7121   -0.8538 H   0  0  0  0  0  0  0  0  0  0  0  0
   -1.5200   -0.3692    0.9241 H   0  0  0  0  0  0  0  0  0  0  0  0
  1  2  1  0
  2  3  1  0
  2  4  2  0
  4  5  1  0
  4  6  1  0
  1  7  1  0
  1  8  1  0
  1  9  1  0
M  END
>  <UniqueID>  (12) 
11

>  <SMILES>  (12) 
C/C(Cl)=C(\F)I

>  <Energy>  (12) 
3.2275353127640756

>  <Genealogy>  (12) 
C/C(Cl)=C(\F)I (cis-trans isomerization)
C/C(Cl)=C(\F)I (3D coordinates assigned)
C/C(Cl)=C(\F)I (optimized conformer: 3.2275353127640756 kcal/mol)

$$$$
chirality
     RDKit          3D

 14 13  0  0  0  0  0  0  0  0999 V2000
   -1.4081   -0.5815   -0.7480 C   0  0  0  0  0  0  0  0  0  0  0  0
   -0.8618    0.2316    0.4312 C   0  0  2  0  0  0  0  0  0  0  0  0
   -1.6298   -0.0722    1.5429 F   0  0  0  0  0  0  0  0  0  0  0  0
   -1.1732    2.3228    0.0050 I   0  0  0  0  0  0  0  0  0  0  0  0
    0.6193   -0.1133    0.7514 C   0  0  2  0  0  0  0  0  0  0  0  0
    1.5899    0.2230   -0.3873 C   0  0  0  0  0  0  0  0  0  0  0  0
    0.7193   -1.4687    1.0201 F   0  0  0  0  0  0  0  0  0  0  0  0
    1.2737    0.9070    2.5295 I   0  0  0  0  0  0  0  0  0  0  0  0
   -1.2504   -1.6686   -0.5850 H   0  0  0  0  0  0  0  0  0  0  0  0
   -0.9228   -0.2795   -1.6989 H   0  0  0  0  0  0  0  0  0  0  0  0
   -2.4997   -0.4036   -0.8505 H   0  0  0  0  0  0  0  0  0  0  0  0
    2.6261   -0.0323   -0.0801 H   0  0  0  0  0  0  0  0  0  0  0  0
    1.5608    1.3038   -0.6343 H   0  0  0  0  0  0  0  0  0  0  0  0
    1.3568   -0.3685   -1.2961 H   0  0  0  0  0  0  0  0  0  0  0  0
  1  2  1  0
  2  3  1  1
  2  4  1  0
  2  5  1  0
  5  6  1  0
  5  7  1  1
  5  8  1  0
  1  9  1  0
  1 10  1  0
  1 11  1  0
  6 12  1  0
  6 13  1  0
  6 14  1  0
M  END
>  <UniqueID>  (13) 
12

>  <SMILES>  (13) 
C[C@](F)(I)[C@](C)(F)I

>  <Energy>  (13) 
6.963606699005551

>  <Genealogy>  (13) 
C[C@](F)(I)[C@](C)(F)I (chirality)
C[C@](F)(I)[C@](C)(F)I (3D coordinates assigned)
C[C@](F)(I)[C@](C)(F)I (optimized conformer: 6.963606699005551 kcal/mol)

$$$$
chirality
     RDKit          3D

 14 13  0  0  0  0  0  0  0  0999 V2000
    1.5118   -0.5213   -0.3659 C   0  0  0  0  0  0  0  0  0  0  0  0
    0.7305    0.6995    0.1353 C   0  0  1  0  0  0  0  0  0  0  0  0
    1.4539    1.2874    1.1594 F   0  0  0  0  0  0  0  0  0  0  0  0
    0.6367    2.1468   -1.4549 I   0  0  0  0  0  0  0  0  0  0  0  0
   -0.6873    0.3547    0.6656 C   0  0  2  0  0  0  0  0  0  0  0  0
   -1.5500   -0.4128   -0.3437 C   0  0  0  0  0  0  0  0  0  0  0  0
   -1.3383    1.5346    0.9845 F   0  0  0  0  0  0  0  0  0  0  0  0
   -0.5813   -0.7944    2.4823 I   0  0  0  0  0  0  0  0  0  0  0  0
    1.0449   -0.9429   -1.2803 H   0  0  0  0  0  0  0  0  0  0  0  0
    1.5645   -1.3086    0.4138 H   0  0  0  0  0  0  0  0  0  0  0  0
    2.5499   -0.2201   -0.6206 H   0  0  0  0  0  0  0  0  0  0  0  0
   -2.5804   -0.5237    0.0556 H   0  0  0  0  0  0  0  0  0  0  0  0
   -1.6127    0.1303   -1.3089 H   0  0  0  0  0  0  0  0  0  0  0  0
   -1.1421   -1.4294   -0.5220 H   0  0  0  0  0  0  0  0  0  0  0  0
  1  2  1  0
  2  3  1  1
  2  4  1  0
  2  5  1  0
  5  6  1  0
  5  7  1  1
  5  8  1  0
  1  9  1  0
  1 10  1  0
  1 11  1  0
  6 12  1  0
  6 13  1  0
  6 14  1  0
M  END
>  <UniqueID>  (14) 
13

>  <SMILES>  (14) 
C[C@@](F)(I)[C@](C)(F)I

>  <Energy>  (14) 
6.5571890012077585

>  <Genealogy>  (14) 
C[C@@](F)(I)[C@](C)(F)I (chirality)
C[C@@](F)(I)[C@](C)(F)I (3D coordinates assigned)
C[C@@](F)(I)[C@](C)(F)I (optimized conformer: 6.5571890012077585 kcal/mol)

$$$$
