EMPTY MOLECULE DESCRIBING GYPSUM PARAMETERS
     RDKit          2D

  0  0  0  0  0  0  0  0  0  0999 V2000
M  END
>  <source>  (1) 
sample_molecules.smi

>  <output_file>  (1) 
output.sdf

>  <separate_output_files>  (1) 
False

>  <num_processors>  (1) 
-1

>  <start_time>  (1) 
2018-11-28 14:41:39.914102

>  <end_time>  (1) 
2018-11-28 14:41:40.537810

>  <run_time>  (1) 
0:00:00.623708

>  <min_ph>  (1) 
6.4

>  <max_ph>  (1) 
8.4

>  <ph_std_dev>  (1) 
1.0

>  <thoroughness>  (1) 
3

>  <max_variants_per_compound>  (1) 
5

>  <second_embed>  (1) 
False

>  <2d_output_only>  (1) 
False

>  <skip_optimize_geometry>  (1) 
False

>  <skip_alternate_ring_conformations>  (1) 
False

>  <skip_adding_hydrogen>  (1) 
False

>  <skip_making_tautomers>  (1) 
False

>  <skip_ennumerate_chiral_mol>  (1) 
False

>  <skip_ennumerate_double_bonds>  (1) 
False

>  <multithread_mode>  (1) 
multithreading

>  <Parallelizer>  (1) 
<gypsum.parallelizer.Parallelizer object at 0x7f211b380fd0>

$$$$
non-aromatic puckers
     RDKit          3D

 22 23  0  0  0  0  0  0  0  0999 V2000
    2.8779    0.0321   -0.2589 C   0  0  0  0  0  0  0  0  0  0  0  0
    2.5303    1.3819   -0.1954 C   0  0  0  0  0  0  0  0  0  0  0  0
    1.1905    1.7549   -0.0678 C   0  0  0  0  0  0  0  0  0  0  0  0
    0.1819    0.7794   -0.0119 C   0  0  0  0  0  0  0  0  0  0  0  0
    0.5372   -0.5914   -0.0485 C   0  0  0  0  0  0  0  0  0  0  0  0
    1.8874   -0.9502   -0.1908 C   0  0  0  0  0  0  0  0  0  0  0  0
   -0.5110   -1.6795   -0.0480 C   0  0  0  0  0  0  0  0  0  0  0  0
   -1.8582   -1.1993    0.4999 C   0  0  0  0  0  0  0  0  0  0  0  0
   -2.2588    0.1228   -0.1540 C   0  0  0  0  0  0  0  0  0  0  0  0
   -1.2485    1.2195    0.1959 C   0  0  0  0  0  0  0  0  0  0  0  0
    3.9166   -0.2540   -0.3632 H   0  0  0  0  0  0  0  0  0  0  0  0
    3.3005    2.1409   -0.2431 H   0  0  0  0  0  0  0  0  0  0  0  0
    0.9380    2.8067   -0.0094 H   0  0  0  0  0  0  0  0  0  0  0  0
    2.1726   -1.9934   -0.2519 H   0  0  0  0  0  0  0  0  0  0  0  0
   -0.6484   -2.0369   -1.0917 H   0  0  0  0  0  0  0  0  0  0  0  0
   -0.1639   -2.5394    0.5654 H   0  0  0  0  0  0  0  0  0  0  0  0
   -1.7913   -1.0691    1.6027 H   0  0  0  0  0  0  0  0  0  0  0  0
   -2.6345   -1.9665    0.2905 H   0  0  0  0  0  0  0  0  0  0  0  0
   -2.3103   -0.0033   -1.2582 H   0  0  0  0  0  0  0  0  0  0  0  0
   -3.2666    0.4236    0.2052 H   0  0  0  0  0  0  0  0  0  0  0  0
   -1.4640    2.1137   -0.4287 H   0  0  0  0  0  0  0  0  0  0  0  0
   -1.3773    1.5073    1.2619 H   0  0  0  0  0  0  0  0  0  0  0  0
  1  2  2  0
  2  3  1  0
  3  4  2  0
  4  5  1  0
  5  6  2  0
  5  7  1  0
  7  8  1  0
  8  9  1  0
  9 10  1  0
  6  1  1  0
 10  4  1  0
  1 11  1  0
  2 12  1  0
  3 13  1  0
  6 14  1  0
  7 15  1  0
  7 16  1  0
  8 17  1  0
  8 18  1  0
  9 19  1  0
  9 20  1  0
 10 21  1  0
 10 22  1  0
M  END
>  <UniqueID>  (2) 
1

>  <SMILES>  (2) 
c1ccc2c(c1)CCCC2

>  <Energy>  (2) 
20.582423814233135

>  <Genealogy>  (2) 
c1ccc2c(c1)CCCC2 (3D coordinates assigned)
c1ccc2c(c1)CCCC2 (nonaromatic ring conformer: 20.582423814233135 kcal/mol)

$$$$
non-aromatic puckers
     RDKit          3D

 22 23  0  0  0  0  0  0  0  0999 V2000
    2.8815    0.0324   -0.2150 C   0  0  0  0  0  0  0  0  0  0  0  0
    2.5267    1.3816   -0.2393 C   0  0  0  0  0  0  0  0  0  0  0  0
    1.1836    1.7544   -0.1515 C   0  0  0  0  0  0  0  0  0  0  0  0
    0.1805    0.7793   -0.0286 C   0  0  0  0  0  0  0  0  0  0  0  0
    0.5386   -0.5913   -0.0318 C   0  0  0  0  0  0  0  0  0  0  0  0
    1.8943   -0.9496   -0.1071 C   0  0  0  0  0  0  0  0  0  0  0  0
   -0.4945   -1.6781    0.1537 C   0  0  0  0  0  0  0  0  0  0  0  0
   -1.9135   -1.2039   -0.1733 C   0  0  0  0  0  0  0  0  0  0  0  0
   -2.2035    0.1275    0.5192 C   0  0  0  0  0  0  0  0  0  0  0  0
   -1.2651    1.2181   -0.0059 C   0  0  0  0  0  0  0  0  0  0  0  0
    3.9236   -0.2534   -0.2779 H   0  0  0  0  0  0  0  0  0  0  0  0
    3.2935    2.1403   -0.3284 H   0  0  0  0  0  0  0  0  0  0  0  0
    0.9238    2.8055   -0.1821 H   0  0  0  0  0  0  0  0  0  0  0  0
    2.1868   -1.9922   -0.0792 H   0  0  0  0  0  0  0  0  0  0  0  0
   -0.2512   -2.5466   -0.4964 H   0  0  0  0  0  0  0  0  0  0  0  0
   -0.4591   -2.0211    1.2106 H   0  0  0  0  0  0  0  0  0  0  0  0
   -2.0278   -1.0888   -1.2740 H   0  0  0  0  0  0  0  0  0  0  0  0
   -2.6444   -1.9673    0.1704 H   0  0  0  0  0  0  0  0  0  0  0  0
   -3.2567    0.4245    0.3253 H   0  0  0  0  0  0  0  0  0  0  0  0
   -2.0738    0.0164    1.6185 H   0  0  0  0  0  0  0  0  0  0  0  0
   -1.3767    2.1210    0.6332 H   0  0  0  0  0  0  0  0  0  0  0  0
   -1.5666    1.4915   -1.0404 H   0  0  0  0  0  0  0  0  0  0  0  0
  1  2  2  0
  2  3  1  0
  3  4  2  0
  4  5  1  0
  5  6  2  0
  5  7  1  0
  7  8  1  0
  8  9  1  0
  9 10  1  0
  6  1  1  0
 10  4  1  0
  1 11  1  0
  2 12  1  0
  3 13  1  0
  6 14  1  0
  7 15  1  0
  7 16  1  0
  8 17  1  0
  8 18  1  0
  9 19  1  0
  9 20  1  0
 10 21  1  0
 10 22  1  0
M  END
>  <UniqueID>  (3) 
2

>  <SMILES>  (3) 
c1ccc2c(c1)CCCC2

>  <Energy>  (3) 
20.582423814889598

>  <Genealogy>  (3) 
c1ccc2c(c1)CCCC2 (3D coordinates assigned)
c1ccc2c(c1)CCCC2 (nonaromatic ring conformer: 20.582423814889598 kcal/mol)

$$$$
non-aromatic puckers
     RDKit          3D

 22 23  0  0  0  0  0  0  0  0999 V2000
    2.8326    0.0280   -0.4303 C   0  0  0  0  0  0  0  0  0  0  0  0
    2.4830    1.3808   -0.3786 C   0  0  0  0  0  0  0  0  0  0  0  0
    1.1701    1.7554   -0.0770 C   0  0  0  0  0  0  0  0  0  0  0  0
    0.1981    0.7724    0.1625 C   0  0  0  0  0  0  0  0  0  0  0  0
    0.5477   -0.5869    0.1076 C   0  0  0  0  0  0  0  0  0  0  0  0
    1.8707   -0.9556   -0.1797 C   0  0  0  0  0  0  0  0  0  0  0  0
   -0.4947   -1.6183    0.4485 C   0  0  0  0  0  0  0  0  0  0  0  0
   -1.8710   -1.2779   -0.1631 C   0  0  0  0  0  0  0  0  0  0  0  0
   -2.1886    0.2365   -0.2745 C   0  0  0  0  0  0  0  0  0  0  0  0
   -1.2192    1.1359    0.5050 C   0  0  0  0  0  0  0  0  0  0  0  0
    3.8516   -0.2581   -0.6563 H   0  0  0  0  0  0  0  0  0  0  0  0
    3.2316    2.1396   -0.5668 H   0  0  0  0  0  0  0  0  0  0  0  0
    0.9130    2.8062   -0.0310 H   0  0  0  0  0  0  0  0  0  0  0  0
    2.1575   -1.9994   -0.2052 H   0  0  0  0  0  0  0  0  0  0  0  0
   -0.1822   -2.6272    0.1008 H   0  0  0  0  0  0  0  0  0  0  0  0
   -0.5890   -1.6592    1.5553 H   0  0  0  0  0  0  0  0  0  0  0  0
   -2.6576   -1.7736    0.4466 H   0  0  0  0  0  0  0  0  0  0  0  0
   -1.9274   -1.7250   -1.1799 H   0  0  0  0  0  0  0  0  0  0  0  0
   -3.2251    0.4271    0.0792 H   0  0  0  0  0  0  0  0  0  0  0  0
   -2.1513    0.5330   -1.3463 H   0  0  0  0  0  0  0  0  0  0  0  0
   -1.3764    0.9975    1.5965 H   0  0  0  0  0  0  0  0  0  0  0  0
   -1.4290    2.1989    0.2559 H   0  0  0  0  0  0  0  0  0  0  0  0
  1  2  2  0
  2  3  1  0
  3  4  2  0
  4  5  1  0
  5  6  2  0
  5  7  1  0
  7  8  1  0
  8  9  1  0
  9 10  1  0
  6  1  1  0
 10  4  1  0
  1 11  1  0
  2 12  1  0
  3 13  1  0
  6 14  1  0
  7 15  1  0
  7 16  1  0
  8 17  1  0
  8 18  1  0
  9 19  1  0
  9 20  1  0
 10 21  1  0
 10 22  1  0
M  END
>  <UniqueID>  (4) 
3

>  <SMILES>  (4) 
c1ccc2c(c1)CCCC2

>  <Energy>  (4) 
25.819761053418812

>  <Genealogy>  (4) 
c1ccc2c(c1)CCCC2 (3D coordinates assigned)
c1ccc2c(c1)CCCC2 (nonaromatic ring conformer: 25.819761053418812 kcal/mol)

$$$$
non-aromatic puckers
     RDKit          3D

 22 23  0  0  0  0  0  0  0  0999 V2000
    2.8653    0.0166   -0.0731 C   0  0  0  0  0  0  0  0  0  0  0  0
    2.5166    1.3696   -0.0215 C   0  0  0  0  0  0  0  0  0  0  0  0
    1.1723    1.7507   -0.0772 C   0  0  0  0  0  0  0  0  0  0  0  0
    0.1688    0.7743   -0.1678 C   0  0  0  0  0  0  0  0  0  0  0  0
    0.5201   -0.5846   -0.2228 C   0  0  0  0  0  0  0  0  0  0  0  0
    1.8710   -0.9607   -0.1797 C   0  0  0  0  0  0  0  0  0  0  0  0
   -0.5757   -1.6047   -0.3530 C   0  0  0  0  0  0  0  0  0  0  0  0
   -1.7237   -1.2585    0.6054 C   0  0  0  0  0  0  0  0  0  0  0  0
   -2.2039    0.2134    0.5080 C   0  0  0  0  0  0  0  0  0  0  0  0
   -1.2822    1.1541   -0.2980 C   0  0  0  0  0  0  0  0  0  0  0  0
    3.9071   -0.2744   -0.0362 H   0  0  0  0  0  0  0  0  0  0  0  0
    3.2892    2.1239    0.0531 H   0  0  0  0  0  0  0  0  0  0  0  0
    0.9157    2.8025   -0.0543 H   0  0  0  0  0  0  0  0  0  0  0  0
    2.1534   -2.0049   -0.2278 H   0  0  0  0  0  0  0  0  0  0  0  0
   -0.9497   -1.6051   -1.3996 H   0  0  0  0  0  0  0  0  0  0  0  0
   -0.2004   -2.6245   -0.1178 H   0  0  0  0  0  0  0  0  0  0  0  0
   -2.5778   -1.9430    0.4114 H   0  0  0  0  0  0  0  0  0  0  0  0
   -1.3791   -1.4553    1.6450 H   0  0  0  0  0  0  0  0  0  0  0  0
   -2.3096    0.6181    1.5385 H   0  0  0  0  0  0  0  0  0  0  0  0
   -3.2170    0.2390    0.0506 H   0  0  0  0  0  0  0  0  0  0  0  0
   -1.4490    2.2011    0.0373 H   0  0  0  0  0  0  0  0  0  0  0  0
   -1.5571    1.0985   -1.3736 H   0  0  0  0  0  0  0  0  0  0  0  0
  1  2  2  0
  2  3  1  0
  3  4  2  0
  4  5  1  0
  5  6  2  0
  5  7  1  0
  7  8  1  0
  8  9  1  0
  9 10  1  0
  6  1  1  0
 10  4  1  0
  1 11  1  0
  2 12  1  0
  3 13  1  0
  6 14  1  0
  7 15  1  0
  7 16  1  0
  8 17  1  0
  8 18  1  0
  9 19  1  0
  9 20  1  0
 10 21  1  0
 10 22  1  0
M  END
>  <UniqueID>  (5) 
4

>  <SMILES>  (5) 
c1ccc2c(c1)CCCC2

>  <Energy>  (5) 
25.81976105793555

>  <Genealogy>  (5) 
c1ccc2c(c1)CCCC2 (3D coordinates assigned)
c1ccc2c(c1)CCCC2 (nonaromatic ring conformer: 25.81976105793555 kcal/mol)

$$$$
various pHs
     RDKit          3D

 21 21  0  0  0  0  0  0  0  0999 V2000
   -1.6503   -0.6086    0.9643 N   0  0  0  0  0  0  0  0  0  0  0  0
   -1.3872    0.6322    0.2200 C   0  0  1  0  0  0  0  0  0  0  0  0
   -0.4056    0.3822   -0.9449 C   0  0  0  0  0  0  0  0  0  0  0  0
    0.9449   -0.0553   -0.4576 C   0  0  0  0  0  0  0  0  0  0  0  0
    1.8273    0.6919    0.2953 C   0  0  0  0  0  0  0  0  0  0  0  0
    2.9231   -0.0557    0.5184 N   0  0  0  0  0  0  0  0  0  0  0  0
    2.6947   -1.2323   -0.0971 C   0  0  0  0  0  0  0  0  0  0  0  0
    1.4929   -1.2597   -0.7040 N   0  0  0  0  0  0  0  0  0  0  0  0
   -2.6695    1.2245   -0.3121 C   0  0  0  0  0  0  0  0  0  0  0  0
   -2.6606    2.3703   -0.8350 O   0  0  0  0  0  0  0  0  0  0  0  0
   -3.8689    0.5257   -0.2292 O   0  0  0  0  0  0  0  0  0  0  0  0
   -0.7691   -0.9566    1.4065 H   0  0  0  0  0  0  0  0  0  0  0  0
   -2.3381   -0.4250    1.7310 H   0  0  0  0  0  0  0  0  0  0  0  0
   -2.0290   -1.3485    0.3286 H   0  0  0  0  0  0  0  0  0  0  0  0
   -0.9412    1.3769    0.9176 H   0  0  0  0  0  0  0  0  0  0  0  0
   -0.8244   -0.3912   -1.6255 H   0  0  0  0  0  0  0  0  0  0  0  0
   -0.2713    1.3142   -1.5360 H   0  0  0  0  0  0  0  0  0  0  0  0
    1.6848    1.7031    0.6535 H   0  0  0  0  0  0  0  0  0  0  0  0
    3.7746    0.2194    1.0559 H   0  0  0  0  0  0  0  0  0  0  0  0
    3.3948   -2.0576   -0.1037 H   0  0  0  0  0  0  0  0  0  0  0  0
    1.0781   -2.0499   -1.2460 H   0  0  0  0  0  0  0  0  0  0  0  0
  1  2  1  0
  2  3  1  0
  3  4  1  0
  4  5  2  0
  5  6  1  0
  6  7  1  0
  7  8  2  0
  2  9  1  0
  9 10  2  0
  9 11  1  0
  8  4  1  0
  1 12  1  0
  1 13  1  0
  1 14  1  0
  2 15  1  1
  3 16  1  0
  3 17  1  0
  5 18  1  0
  6 19  1  0
  7 20  1  0
  8 21  1  0
M  CHG  3   1   1   8   1  11  -1
M  END
>  <UniqueID>  (6) 
5

>  <SMILES>  (6) 
[NH3+][C@@H](Cc1c[nH]c[nH+]1)C(=O)[O-]

>  <Energy>  (6) 
44.609758560752304

>  <Genealogy>  (6) 
[NH3+][C@@H](Cc1c[nH]c[nH+]1)C(=O)[O-] (protonated)
[NH3+][C@@H](Cc1c[nH]c[nH+]1)C(=O)[O-] (3D coordinates assigned)
[NH3+][C@@H](Cc1c[nH]c[nH+]1)C(=O)[O-] (optimized conformer: 44.609758560752304 kcal/mol)

$$$$
various pHs
     RDKit          3D

 19 19  0  0  0  0  0  0  0  0999 V2000
   -1.2732    0.1701    1.4235 N   0  0  0  0  0  0  0  0  0  0  0  0
   -1.3005    0.4112   -0.0230 C   0  0  1  0  0  0  0  0  0  0  0  0
   -0.3143   -0.5303   -0.7361 C   0  0  0  0  0  0  0  0  0  0  0  0
    1.0907   -0.3238   -0.2504 C   0  0  0  0  0  0  0  0  0  0  0  0
    1.8711   -1.2416    0.4159 C   0  0  0  0  0  0  0  0  0  0  0  0
    3.0732   -0.6905    0.6775 N   0  0  0  0  0  0  0  0  0  0  0  0
    2.9915    0.5538    0.1582 C   0  0  0  0  0  0  0  0  0  0  0  0
    1.7990    0.8044   -0.4135 N   0  0  0  0  0  0  0  0  0  0  0  0
   -2.6903    0.2393   -0.5873 C   0  0  0  0  0  0  0  0  0  0  0  0
   -2.9160    0.5260   -1.7928 O   0  0  0  0  0  0  0  0  0  0  0  0
   -3.7344   -0.2208    0.2075 O   0  0  0  0  0  0  0  0  0  0  0  0
   -1.9131    0.8518    1.8930 H   0  0  0  0  0  0  0  0  0  0  0  0
   -1.6259   -0.7941    1.6264 H   0  0  0  0  0  0  0  0  0  0  0  0
   -0.9892    1.4633   -0.2086 H   0  0  0  0  0  0  0  0  0  0  0  0
   -0.6183   -1.5870   -0.5667 H   0  0  0  0  0  0  0  0  0  0  0  0
   -0.3337   -0.3419   -1.8314 H   0  0  0  0  0  0  0  0  0  0  0  0
    1.5863   -2.2472    0.6958 H   0  0  0  0  0  0  0  0  0  0  0  0
    3.8004    1.2714    0.1964 H   0  0  0  0  0  0  0  0  0  0  0  0
    1.4966    1.6860   -0.8844 H   0  0  0  0  0  0  0  0  0  0  0  0
  1  2  1  0
  2  3  1  0
  3  4  1  0
  4  5  2  0
  5  6  1  0
  6  7  2  0
  7  8  1  0
  2  9  1  0
  9 10  2  0
  9 11  1  0
  8  4  1  0
  1 12  1  0
  1 13  1  0
  2 14  1  1
  3 15  1  0
  3 16  1  0
  5 17  1  0
  7 18  1  0
  8 19  1  0
M  CHG  1  11  -1
M  END
>  <UniqueID>  (7) 
6

>  <SMILES>  (7) 
N[C@@H](Cc1cnc[nH]1)C(=O)[O-]

>  <Energy>  (7) 
41.464815167673976

>  <Genealogy>  (7) 
N[C@@H](Cc1c[nH]cn1)C(=O)[O-] (protonated)
N[C@@H](Cc1cnc[nH]1)C(=O)[O-] (tautomer)
N[C@@H](Cc1cnc[nH]1)C(=O)[O-] (3D coordinates assigned)
N[C@@H](Cc1cnc[nH]1)C(=O)[O-] (optimized conformer: 41.464815167673976 kcal/mol)

$$$$
various pHs
     RDKit          3D

 20 20  0  0  0  0  0  0  0  0999 V2000
   -1.5189    0.9636   -0.5702 N   0  0  0  0  0  0  0  0  0  0  0  0
   -1.3952   -0.3378    0.1037 C   0  0  1  0  0  0  0  0  0  0  0  0
   -0.3401   -0.2815    1.2295 C   0  0  0  0  0  0  0  0  0  0  0  0
    1.0351   -0.0016    0.6996 C   0  0  0  0  0  0  0  0  0  0  0  0
    1.7668   -0.8189   -0.1336 C   0  0  0  0  0  0  0  0  0  0  0  0
    2.9424   -0.2182   -0.3693 N   0  0  0  0  0  0  0  0  0  0  0  0
    2.9023    0.9376    0.3205 C   0  0  0  0  0  0  0  0  0  0  0  0
    1.7445    1.1065    0.9938 N   0  0  0  0  0  0  0  0  0  0  0  0
   -2.7224   -0.7800    0.6708 C   0  0  0  0  0  0  0  0  0  0  0  0
   -2.8469   -1.9421    1.1402 O   0  0  0  0  0  0  0  0  0  0  0  0
   -3.8182    0.0761    0.6784 O   0  0  0  0  0  0  0  0  0  0  0  0
   -0.6181    1.2129   -1.0388 H   0  0  0  0  0  0  0  0  0  0  0  0
   -1.7665    1.7138    0.1160 H   0  0  0  0  0  0  0  0  0  0  0  0
   -2.2571    0.9128   -1.3098 H   0  0  0  0  0  0  0  0  0  0  0  0
   -1.0848   -1.0986   -0.6478 H   0  0  0  0  0  0  0  0  0  0  0  0
   -0.6206    0.5047    1.9644 H   0  0  0  0  0  0  0  0  0  0  0  0
   -0.3084   -1.2527    1.7698 H   0  0  0  0  0  0  0  0  0  0  0  0
    1.4686   -1.7779   -0.5368 H   0  0  0  0  0  0  0  0  0  0  0  0
    3.7251   -0.5734   -0.9615 H   0  0  0  0  0  0  0  0  0  0  0  0
    3.7123    1.6547    0.3359 H   0  0  0  0  0  0  0  0  0  0  0  0
  1  2  1  0
  2  3  1  0
  3  4  1  0
  4  5  2  0
  5  6  1  0
  6  7  1  0
  7  8  2  0
  2  9  1  0
  9 10  2  0
  9 11  1  0
  8  4  1  0
  1 12  1  0
  1 13  1  0
  1 14  1  0
  2 15  1  6
  3 16  1  0
  3 17  1  0
  5 18  1  0
  6 19  1  0
  7 20  1  0
M  CHG  2   1   1  11  -1
M  END
>  <UniqueID>  (8) 
7

>  <SMILES>  (8) 
[NH3+][C@@H](Cc1c[nH]cn1)C(=O)[O-]

>  <Energy>  (8) 
42.587192544747545

>  <Genealogy>  (8) 
[NH3+][C@@H](Cc1c[nH]cn1)C(=O)[O-] (protonated)
[NH3+][C@@H](Cc1c[nH]cn1)C(=O)[O-] (3D coordinates assigned)
[NH3+][C@@H](Cc1c[nH]cn1)C(=O)[O-] (optimized conformer: 42.587192544747545 kcal/mol)

$$$$
various pHs
     RDKit          3D

 20 20  0  0  0  0  0  0  0  0999 V2000
   -1.4235   -0.0040   -1.2725 N   0  0  0  0  0  0  0  0  0  0  0  0
   -1.0820   -0.7897   -0.0782 C   0  0  1  0  0  0  0  0  0  0  0  0
   -0.3260    0.0749    0.9558 C   0  0  0  0  0  0  0  0  0  0  0  0
    1.0077    0.5292    0.4385 C   0  0  0  0  0  0  0  0  0  0  0  0
    1.3976    1.8291    0.2069 C   0  0  0  0  0  0  0  0  0  0  0  0
    2.6665    1.8341   -0.2480 N   0  0  0  0  0  0  0  0  0  0  0  0
    3.0167    0.5299   -0.2785 C   0  0  0  0  0  0  0  0  0  0  0  0
    2.0294   -0.2863    0.1347 N   0  0  0  0  0  0  0  0  0  0  0  0
   -2.3339   -1.3894    0.5175 C   0  0  0  0  0  0  0  0  0  0  0  0
   -2.9862   -2.2460   -0.1356 O   0  0  0  0  0  0  0  0  0  0  0  0
   -2.7835   -1.0131    1.7789 O   0  0  0  0  0  0  0  0  0  0  0  0
   -2.0319    0.8074   -1.0148 H   0  0  0  0  0  0  0  0  0  0  0  0
   -0.5548    0.3495   -1.7345 H   0  0  0  0  0  0  0  0  0  0  0  0
   -1.9287   -0.6045   -1.9643 H   0  0  0  0  0  0  0  0  0  0  0  0
   -0.4219   -1.6349   -0.3778 H   0  0  0  0  0  0  0  0  0  0  0  0
   -0.1484   -0.5154    1.8810 H   0  0  0  0  0  0  0  0  0  0  0  0
   -0.9430    0.9595    1.2282 H   0  0  0  0  0  0  0  0  0  0  0  0
    0.7987    2.7177    0.3566 H   0  0  0  0  0  0  0  0  0  0  0  0
    3.9888    0.1798   -0.5994 H   0  0  0  0  0  0  0  0  0  0  0  0
    2.0585   -1.3276    0.2056 H   0  0  0  0  0  0  0  0  0  0  0  0
  1  2  1  0
  2  3  1  0
  3  4  1  0
  4  5  2  0
  5  6  1  0
  6  7  2  0
  7  8  1  0
  2  9  1  0
  9 10  2  0
  9 11  1  0
  8  4  1  0
  1 12  1  0
  1 13  1  0
  1 14  1  0
  2 15  1  6
  3 16  1  0
  3 17  1  0
  5 18  1  0
  7 19  1  0
  8 20  1  0
M  CHG  2   1   1  11  -1
M  END
>  <UniqueID>  (9) 
8

>  <SMILES>  (9) 
[NH3+][C@@H](Cc1cnc[nH]1)C(=O)[O-]

>  <Energy>  (9) 
42.91673809865407

>  <Genealogy>  (9) 
[NH3+][C@@H](Cc1c[nH]cn1)C(=O)[O-] (protonated)
[NH3+][C@@H](Cc1cnc[nH]1)C(=O)[O-] (tautomer)
[NH3+][C@@H](Cc1cnc[nH]1)C(=O)[O-] (3D coordinates assigned)
[NH3+][C@@H](Cc1cnc[nH]1)C(=O)[O-] (optimized conformer: 42.91673809865407 kcal/mol)

$$$$
various pHs
     RDKit          3D

 19 19  0  0  0  0  0  0  0  0999 V2000
   -1.4155    0.3720    1.3004 N   0  0  0  0  0  0  0  0  0  0  0  0
   -1.3924    0.6264   -0.1447 C   0  0  1  0  0  0  0  0  0  0  0  0
   -0.4396   -0.3594   -0.8418 C   0  0  0  0  0  0  0  0  0  0  0  0
    0.9612   -0.2271   -0.3219 C   0  0  0  0  0  0  0  0  0  0  0  0
    1.6755   -1.2015    0.3388 C   0  0  0  0  0  0  0  0  0  0  0  0
    2.8833   -0.6977    0.6320 N   0  0  0  0  0  0  0  0  0  0  0  0
    2.8785    0.5584    0.1466 C   0  0  0  0  0  0  0  0  0  0  0  0
    1.7124    0.8855   -0.4497 N   0  0  0  0  0  0  0  0  0  0  0  0
   -2.7716    0.5361   -0.7538 C   0  0  0  0  0  0  0  0  0  0  0  0
   -3.7646    0.1721   -0.0687 O   0  0  0  0  0  0  0  0  0  0  0  0
   -2.9547    0.8694   -2.0902 O   0  0  0  0  0  0  0  0  0  0  0  0
   -1.8260   -0.5728    1.4851 H   0  0  0  0  0  0  0  0  0  0  0  0
   -2.0284    1.0843    1.7604 H   0  0  0  0  0  0  0  0  0  0  0  0
   -1.0199    1.6613   -0.3130 H   0  0  0  0  0  0  0  0  0  0  0  0
   -0.4230   -0.1615   -1.9355 H   0  0  0  0  0  0  0  0  0  0  0  0
   -0.8016   -1.4004   -0.6894 H   0  0  0  0  0  0  0  0  0  0  0  0
    1.3432   -2.2006    0.5892 H   0  0  0  0  0  0  0  0  0  0  0  0
    3.6636   -1.1787    1.1313 H   0  0  0  0  0  0  0  0  0  0  0  0
    3.7197    1.2343    0.2247 H   0  0  0  0  0  0  0  0  0  0  0  0
  1  2  1  0
  2  3  1  0
  3  4  1  0
  4  5  2  0
  5  6  1  0
  6  7  1  0
  7  8  2  0
  2  9  1  0
  9 10  2  0
  9 11  1  0
  8  4  1  0
  1 12  1  0
  1 13  1  0
  2 14  1  1
  3 15  1  0
  3 16  1  0
  5 17  1  0
  6 18  1  0
  7 19  1  0
M  CHG  1  11  -1
M  END
>  <UniqueID>  (10) 
9

>  <SMILES>  (10) 
N[C@@H](Cc1c[nH]cn1)C(=O)[O-]

>  <Energy>  (10) 
41.53087184239054

>  <Genealogy>  (10) 
N[C@@H](Cc1c[nH]cn1)C(=O)[O-] (protonated)
N[C@@H](Cc1c[nH]cn1)C(=O)[O-] (3D coordinates assigned)
N[C@@H](Cc1c[nH]cn1)C(=O)[O-] (optimized conformer: 41.53087184239054 kcal/mol)

$$$$
tautomers
     RDKit          3D

 12 12  0  0  0  0  0  0  0  0999 V2000
    2.5681   -0.2132    0.0606 O   0  0  0  0  0  0  0  0  0  0  0  0
    1.1790   -0.1517    0.0283 C   0  0  0  0  0  0  0  0  0  0  0  0
    0.5360    1.0898    0.0033 C   0  0  0  0  0  0  0  0  0  0  0  0
   -0.8597    1.1360   -0.0290 C   0  0  0  0  0  0  0  0  0  0  0  0
   -1.5938   -0.0520   -0.0361 C   0  0  0  0  0  0  0  0  0  0  0  0
   -0.9161   -1.2737   -0.0105 C   0  0  0  0  0  0  0  0  0  0  0  0
    0.4437   -1.2978    0.0208 N   0  0  0  0  0  0  0  0  0  0  0  0
    3.0485   -1.1049    0.0789 H   0  0  0  0  0  0  0  0  0  0  0  0
    1.1114    2.0067    0.0089 H   0  0  0  0  0  0  0  0  0  0  0  0
   -1.3708    2.0898   -0.0486 H   0  0  0  0  0  0  0  0  0  0  0  0
   -2.6755   -0.0267   -0.0611 H   0  0  0  0  0  0  0  0  0  0  0  0
   -1.4708   -2.2024   -0.0156 H   0  0  0  0  0  0  0  0  0  0  0  0
  1  2  1  0
  2  3  2  0
  3  4  1  0
  4  5  2  0
  5  6  1  0
  6  7  2  0
  7  2  1  0
  1  8  1  0
  3  9  1  0
  4 10  1  0
  5 11  1  0
  6 12  1  0
M  END
>  <UniqueID>  (11) 
10

>  <SMILES>  (11) 
Oc1ccccn1

>  <Energy>  (11) 
10.688276160949426

>  <Genealogy>  (11) 
Oc1ccccn1 (tautomer)
Oc1ccccn1 (3D coordinates assigned)
Oc1ccccn1 (optimized conformer: 10.688276160949426 kcal/mol)

$$$$
tautomers
     RDKit          3D

 12 12  0  0  0  0  0  0  0  0999 V2000
    2.5761   -0.5200    0.0453 O   0  0  0  0  0  0  0  0  0  0  0  0
    1.3413   -0.2707    0.0236 C   0  0  0  0  0  0  0  0  0  0  0  0
    0.4174   -1.3214    0.0340 C   0  0  0  0  0  0  0  0  0  0  0  0
   -0.9480   -1.0310    0.0097 C   0  0  0  0  0  0  0  0  0  0  0  0
   -1.3740    0.2977   -0.0246 C   0  0  0  0  0  0  0  0  0  0  0  0
   -0.4226    1.3208   -0.0341 C   0  0  0  0  0  0  0  0  0  0  0  0
    0.9056    1.0208   -0.0100 N   0  0  0  0  0  0  0  0  0  0  0  0
    0.7523   -2.3511    0.0607 H   0  0  0  0  0  0  0  0  0  0  0  0
   -1.6740   -1.8337    0.0174 H   0  0  0  0  0  0  0  0  0  0  0  0
   -2.4303    0.5329   -0.0436 H   0  0  0  0  0  0  0  0  0  0  0  0
   -0.7441    2.3543   -0.0606 H   0  0  0  0  0  0  0  0  0  0  0  0
    1.6004    1.8014   -0.0177 H   0  0  0  0  0  0  0  0  0  0  0  0
  1  2  2  0
  2  3  1  0
  3  4  2  0
  4  5  1  0
  5  6  2  0
  6  7  1  0
  7  2  1  0
  3  8  1  0
  4  9  1  0
  5 10  1  0
  6 11  1  0
  7 12  1  0
M  END
>  <UniqueID>  (12) 
11

>  <SMILES>  (12) 
O=c1cccc[nH]1

>  <Energy>  (12) 
10.989887202965045

>  <Genealogy>  (12) 
O=c1cccc[nH]1 (3D coordinates assigned)
O=c1cccc[nH]1 (optimized conformer: 10.989887202965045 kcal/mol)

$$$$
double bonds
     RDKit          3D

  9  8  0  0  0  0  0  0  0  0999 V2000
   -1.1564   -0.1357   -0.0473 C   0  0  0  0  0  0  0  0  0  0  0  0
    0.1803    0.5456   -0.1099 C   0  0  0  0  0  0  0  0  0  0  0  0
    0.2311    2.2649   -0.4909 Cl  0  0  0  0  0  0  0  0  0  0  0  0
    1.3279   -0.1163    0.1152 C   0  0  0  0  0  0  0  0  0  0  0  0
    2.5142    0.5443    0.0472 F   0  0  0  0  0  0  0  0  0  0  0  0
    1.3982   -2.1855    0.5826 I   0  0  0  0  0  0  0  0  0  0  0  0
   -1.9696    0.5882   -0.2638 H   0  0  0  0  0  0  0  0  0  0  0  0
   -1.3221   -0.5552    0.9673 H   0  0  0  0  0  0  0  0  0  0  0  0
   -1.2034   -0.9504   -0.8003 H   0  0  0  0  0  0  0  0  0  0  0  0
  1  2  1  0
  2  3  1  0
  2  4  2  0
  4  5  1  0
  4  6  1  0
  1  7  1  0
  1  8  1  0
  1  9  1  0
M  END
>  <UniqueID>  (13) 
12

>  <SMILES>  (13) 
C/C(Cl)=C(/F)I

>  <Energy>  (13) 
2.964009357008243

>  <Genealogy>  (13) 
C/C(Cl)=C(/F)I (cis-trans isomerization)
C/C(Cl)=C(/F)I (3D coordinates assigned)
C/C(Cl)=C(/F)I (optimized conformer: 2.964009357008243 kcal/mol)

$$$$
chirality
     RDKit          3D

 14 13  0  0  0  0  0  0  0  0999 V2000
   -1.3916    0.7825    0.3388 C   0  0  0  0  0  0  0  0  0  0  0  0
   -0.8044   -0.3328   -0.5347 C   0  0  2  0  0  0  0  0  0  0  0  0
   -0.7734    0.1141   -1.8457 F   0  0  0  0  0  0  0  0  0  0  0  0
   -2.1524   -2.0099   -0.4976 I   0  0  0  0  0  0  0  0  0  0  0  0
    0.6273   -0.7667   -0.1136 C   0  0  2  0  0  0  0  0  0  0  0  0
    1.6474    0.3682   -0.2600 C   0  0  0  0  0  0  0  0  0  0  0  0
    1.0294   -1.8023   -0.9406 F   0  0  0  0  0  0  0  0  0  0  0  0
    0.7300   -1.5034    1.9108 I   0  0  0  0  0  0  0  0  0  0  0  0
   -0.7862    1.7087    0.2613 H   0  0  0  0  0  0  0  0  0  0  0  0
   -2.4181    1.0252   -0.0087 H   0  0  0  0  0  0  0  0  0  0  0  0
   -1.4528    0.4709    1.4013 H   0  0  0  0  0  0  0  0  0  0  0  0
    1.4569    1.1727    0.4799 H   0  0  0  0  0  0  0  0  0  0  0  0
    1.6170    0.7970   -1.2839 H   0  0  0  0  0  0  0  0  0  0  0  0
    2.6709   -0.0242   -0.0814 H   0  0  0  0  0  0  0  0  0  0  0  0
  1  2  1  0
  2  3  1  6
  2  4  1  0
  2  5  1  0
  5  6  1  0
  5  7  1  6
  5  8  1  0
  1  9  1  0
  1 10  1  0
  1 11  1  0
  6 12  1  0
  6 13  1  0
  6 14  1  0
M  END
>  <UniqueID>  (14) 
13

>  <SMILES>  (14) 
C[C@](F)(I)[C@](C)(F)I

>  <Energy>  (14) 
6.963606698015085

>  <Genealogy>  (14) 
C[C@](F)(I)[C@](C)(F)I (chirality)
C[C@](F)(I)[C@](C)(F)I (3D coordinates assigned)
C[C@](F)(I)[C@](C)(F)I (optimized conformer: 6.963606698015085 kcal/mol)

$$$$
chirality
     RDKit          3D

 14 13  0  0  0  0  0  0  0  0999 V2000
    1.5932   -0.3671   -0.1338 C   0  0  0  0  0  0  0  0  0  0  0  0
    0.6273    0.6936    0.4082 C   0  0  1  0  0  0  0  0  0  0  0  0
    1.0849    1.1040    1.6491 F   0  0  0  0  0  0  0  0  0  0  0  0
    0.7192    2.4175   -0.8771 I   0  0  0  0  0  0  0  0  0  0  0  0
   -0.8313    0.1846    0.5621 C   0  0  2  0  0  0  0  0  0  0  0  0
   -1.4124   -0.4112   -0.7260 C   0  0  0  0  0  0  0  0  0  0  0  0
   -1.6311    1.2471    0.9484 F   0  0  0  0  0  0  0  0  0  0  0  0
   -0.9810   -1.2908    2.1219 I   0  0  0  0  0  0  0  0  0  0  0  0
    2.6312    0.0272   -0.1092 H   0  0  0  0  0  0  0  0  0  0  0  0
    1.5614   -1.2881    0.4837 H   0  0  0  0  0  0  0  0  0  0  0  0
    1.3508   -0.6237   -1.1860 H   0  0  0  0  0  0  0  0  0  0  0  0
   -2.4872   -0.6469   -0.5754 H   0  0  0  0  0  0  0  0  0  0  0  0
   -0.8915   -1.3528   -0.9977 H   0  0  0  0  0  0  0  0  0  0  0  0
   -1.3334    0.3064   -1.5683 H   0  0  0  0  0  0  0  0  0  0  0  0
  1  2  1  0
  2  3  1  1
  2  4  1  0
  2  5  1  0
  5  6  1  0
  5  7  1  1
  5  8  1  0
  1  9  1  0
  1 10  1  0
  1 11  1  0
  6 12  1  0
  6 13  1  0
  6 14  1  0
M  END
>  <UniqueID>  (15) 
14

>  <SMILES>  (15) 
C[C@@](F)(I)[C@](C)(F)I

>  <Energy>  (15) 
6.5571890021943275

>  <Genealogy>  (15) 
C[C@@](F)(I)[C@](C)(F)I (chirality)
C[C@@](F)(I)[C@](C)(F)I (3D coordinates assigned)
C[C@@](F)(I)[C@](C)(F)I (optimized conformer: 6.5571890021943275 kcal/mol)

$$$$
