EMPTY MOLECULE DESCRIBING GYPSUM PARAMETERS
     RDKit          2D

  0  0  0  0  0  0  0  0  0  0999 V2000
M  END
>  <source>  (1) 
sample_molecules.smi

>  <output_file>  (1) 
output.sdf

>  <separate_output_files>  (1) 
False

>  <num_processors>  (1) 
-1

>  <start_time>  (1) 
2018-11-28 17:24:00.864361

>  <end_time>  (1) 
2018-11-28 17:24:01.988300

>  <run_time>  (1) 
0:00:01.123939

>  <min_ph>  (1) 
6.4

>  <max_ph>  (1) 
8.4

>  <ph_std_dev>  (1) 
1.0

>  <thoroughness>  (1) 
3

>  <max_variants_per_compound>  (1) 
5

>  <second_embed>  (1) 
False

>  <2d_output_only>  (1) 
False

>  <skip_optimize_geometry>  (1) 
False

>  <skip_alternate_ring_conformations>  (1) 
False

>  <skip_adding_hydrogen>  (1) 
False

>  <skip_making_tautomers>  (1) 
False

>  <skip_ennumerate_chiral_mol>  (1) 
False

>  <skip_ennumerate_double_bonds>  (1) 
False

>  <multithread_mode>  (1) 
mpi

>  <Parallelizer>  (1) 
<gypsum.parallelizer.Parallelizer object at 0x7fdc7fb02f60>

$$$$
non-aromatic puckers
     RDKit          3D

 22 23  0  0  0  0  0  0  0  0999 V2000
    2.6919   -1.0372    0.1673 C   0  0  0  0  0  0  0  0  0  0  0  0
    2.8538    0.3426    0.2974 C   0  0  0  0  0  0  0  0  0  0  0  0
    1.7406    1.1850    0.2605 C   0  0  0  0  0  0  0  0  0  0  0  0
    0.4522    0.6553    0.0831 C   0  0  0  0  0  0  0  0  0  0  0  0
    0.2852   -0.7476   -0.0213 C   0  0  0  0  0  0  0  0  0  0  0  0
    1.4157   -1.5803    0.0040 C   0  0  0  0  0  0  0  0  0  0  0  0
   -1.0711   -1.3655   -0.2689 C   0  0  0  0  0  0  0  0  0  0  0  0
   -2.2227   -0.4323    0.1166 C   0  0  0  0  0  0  0  0  0  0  0  0
   -1.9990    0.9610   -0.4704 C   0  0  0  0  0  0  0  0  0  0  0  0
   -0.7332    1.5915    0.1177 C   0  0  0  0  0  0  0  0  0  0  0  0
    3.5571   -1.6872    0.1910 H   0  0  0  0  0  0  0  0  0  0  0  0
    3.8436    0.7603    0.4292 H   0  0  0  0  0  0  0  0  0  0  0  0
    1.8820    2.2530    0.3733 H   0  0  0  0  0  0  0  0  0  0  0  0
    1.3078   -2.6525   -0.1059 H   0  0  0  0  0  0  0  0  0  0  0  0
   -1.1517   -1.6173   -1.3487 H   0  0  0  0  0  0  0  0  0  0  0  0
   -1.1689   -2.3091    0.3109 H   0  0  0  0  0  0  0  0  0  0  0  0
   -3.1779   -0.8484   -0.2701 H   0  0  0  0  0  0  0  0  0  0  0  0
   -2.2993   -0.3665    1.2246 H   0  0  0  0  0  0  0  0  0  0  0  0
   -2.8733    1.6063   -0.2370 H   0  0  0  0  0  0  0  0  0  0  0  0
   -1.9067    0.8933   -1.5770 H   0  0  0  0  0  0  0  0  0  0  0  0
   -0.5005    2.5182   -0.4508 H   0  0  0  0  0  0  0  0  0  0  0  0
   -0.9255    1.8775    1.1746 H   0  0  0  0  0  0  0  0  0  0  0  0
  1  2  2  0
  2  3  1  0
  3  4  2  0
  4  5  1  0
  5  6  2  0
  5  7  1  0
  7  8  1  0
  8  9  1  0
  9 10  1  0
  6  1  1  0
 10  4  1  0
  1 11  1  0
  2 12  1  0
  3 13  1  0
  6 14  1  0
  7 15  1  0
  7 16  1  0
  8 17  1  0
  8 18  1  0
  9 19  1  0
  9 20  1  0
 10 21  1  0
 10 22  1  0
M  END
>  <UniqueID>  (2) 
1

>  <SMILES>  (2) 
c1ccc2c(c1)CCCC2

>  <Energy>  (2) 
20.58242381383034

>  <Genealogy>  (2) 
c1ccc2c(c1)CCCC2 (3D coordinates assigned)
c1ccc2c(c1)CCCC2 (nonaromatic ring conformer: 20.58242381383034 kcal/mol)

$$$$
non-aromatic puckers
     RDKit          3D

 22 23  0  0  0  0  0  0  0  0999 V2000
    2.6880   -1.0394    0.2111 C   0  0  0  0  0  0  0  0  0  0  0  0
    2.8578    0.3449    0.2536 C   0  0  0  0  0  0  0  0  0  0  0  0
    1.7481    1.1894    0.1770 C   0  0  0  0  0  0  0  0  0  0  0  0
    0.4537    0.6561    0.0664 C   0  0  0  0  0  0  0  0  0  0  0  0
    0.2837   -0.7485   -0.0046 C   0  0  0  0  0  0  0  0  0  0  0  0
    1.4082   -1.5847    0.0875 C   0  0  0  0  0  0  0  0  0  0  0  0
   -1.0893   -1.3759   -0.0676 C   0  0  0  0  0  0  0  0  0  0  0  0
   -2.1621   -0.3976   -0.5553 C   0  0  0  0  0  0  0  0  0  0  0  0
   -2.0597    0.9264    0.2015 C   0  0  0  0  0  0  0  0  0  0  0  0
   -0.7150    1.6019   -0.0836 C   0  0  0  0  0  0  0  0  0  0  0  0
    3.5494   -1.6916    0.2761 H   0  0  0  0  0  0  0  0  0  0  0  0
    3.8513    0.7647    0.3441 H   0  0  0  0  0  0  0  0  0  0  0  0
    1.8975    2.2619    0.2010 H   0  0  0  0  0  0  0  0  0  0  0  0
    1.2922   -2.6614    0.0664 H   0  0  0  0  0  0  0  0  0  0  0  0
   -1.3592   -1.7359    0.9490 H   0  0  0  0  0  0  0  0  0  0  0  0
   -1.0732   -2.2544   -0.7489 H   0  0  0  0  0  0  0  0  0  0  0  0
   -3.1671   -0.8422   -0.3899 H   0  0  0  0  0  0  0  0  0  0  0  0
   -2.0401   -0.2183   -1.6465 H   0  0  0  0  0  0  0  0  0  0  0  0
   -2.1659    0.7451    1.2940 H   0  0  0  0  0  0  0  0  0  0  0  0
   -2.8841    1.6001   -0.1172 H   0  0  0  0  0  0  0  0  0  0  0  0
   -0.7181    1.9961   -1.1231 H   0  0  0  0  0  0  0  0  0  0  0  0
   -0.5961    2.4635    0.6090 H   0  0  0  0  0  0  0  0  0  0  0  0
  1  2  2  0
  2  3  1  0
  3  4  2  0
  4  5  1  0
  5  6  2  0
  5  7  1  0
  7  8  1  0
  8  9  1  0
  9 10  1  0
  6  1  1  0
 10  4  1  0
  1 11  1  0
  2 12  1  0
  3 13  1  0
  6 14  1  0
  7 15  1  0
  7 16  1  0
  8 17  1  0
  8 18  1  0
  9 19  1  0
  9 20  1  0
 10 21  1  0
 10 22  1  0
M  END
>  <UniqueID>  (3) 
2

>  <SMILES>  (3) 
c1ccc2c(c1)CCCC2

>  <Energy>  (3) 
20.582423814223308

>  <Genealogy>  (3) 
c1ccc2c(c1)CCCC2 (3D coordinates assigned)
c1ccc2c(c1)CCCC2 (nonaromatic ring conformer: 20.582423814223308 kcal/mol)

$$$$
non-aromatic puckers
     RDKit          3D

 22 23  0  0  0  0  0  0  0  0999 V2000
    2.6777   -1.0193   -0.0085 C   0  0  0  0  0  0  0  0  0  0  0  0
    2.8409    0.3642    0.1099 C   0  0  0  0  0  0  0  0  0  0  0  0
    1.7236    1.1933    0.2485 C   0  0  0  0  0  0  0  0  0  0  0  0
    0.4352    0.6379    0.2566 C   0  0  0  0  0  0  0  0  0  0  0  0
    0.2702   -0.7516    0.1345 C   0  0  0  0  0  0  0  0  0  0  0  0
    1.3966   -1.5794    0.0120 C   0  0  0  0  0  0  0  0  0  0  0  0
   -1.1173   -1.3283    0.2281 C   0  0  0  0  0  0  0  0  0  0  0  0
   -2.1518   -0.4824   -0.5455 C   0  0  0  0  0  0  0  0  0  0  0  0
   -1.8732    1.0435   -0.5689 C   0  0  0  0  0  0  0  0  0  0  0  0
   -0.7887    1.4946    0.4193 C   0  0  0  0  0  0  0  0  0  0  0  0
    3.5453   -1.6589   -0.1077 H   0  0  0  0  0  0  0  0  0  0  0  0
    3.8344    0.7936    0.1001 H   0  0  0  0  0  0  0  0  0  0  0  0
    1.8626    2.2625    0.3484 H   0  0  0  0  0  0  0  0  0  0  0  0
    1.2839   -2.6537   -0.0627 H   0  0  0  0  0  0  0  0  0  0  0  0
   -1.1395   -2.3711   -0.1573 H   0  0  0  0  0  0  0  0  0  0  0  0
   -1.4044   -1.3612    1.3015 H   0  0  0  0  0  0  0  0  0  0  0  0
   -2.1954   -0.8484   -1.5948 H   0  0  0  0  0  0  0  0  0  0  0  0
   -3.1552   -0.6651   -0.1028 H   0  0  0  0  0  0  0  0  0  0  0  0
   -1.5511    1.3336   -1.5937 H   0  0  0  0  0  0  0  0  0  0  0  0
   -2.8128    1.5975   -0.3548 H   0  0  0  0  0  0  0  0  0  0  0  0
   -1.1663    1.3953    1.4599 H   0  0  0  0  0  0  0  0  0  0  0  0
   -0.5523    2.5655    0.2363 H   0  0  0  0  0  0  0  0  0  0  0  0
  1  2  2  0
  2  3  1  0
  3  4  2  0
  4  5  1  0
  5  6  2  0
  5  7  1  0
  7  8  1  0
  8  9  1  0
  9 10  1  0
  6  1  1  0
 10  4  1  0
  1 11  1  0
  2 12  1  0
  3 13  1  0
  6 14  1  0
  7 15  1  0
  7 16  1  0
  8 17  1  0
  8 18  1  0
  9 19  1  0
  9 20  1  0
 10 21  1  0
 10 22  1  0
M  END
>  <UniqueID>  (4) 
3

>  <SMILES>  (4) 
c1ccc2c(c1)CCCC2

>  <Energy>  (4) 
25.819761053288026

>  <Genealogy>  (4) 
c1ccc2c(c1)CCCC2 (3D coordinates assigned)
c1ccc2c(c1)CCCC2 (nonaromatic ring conformer: 25.819761053288026 kcal/mol)

$$$$
non-aromatic puckers
     RDKit          3D

 22 23  0  0  0  0  0  0  0  0999 V2000
    2.6436   -1.0518    0.3472 C   0  0  0  0  0  0  0  0  0  0  0  0
    2.8076    0.3316    0.4658 C   0  0  0  0  0  0  0  0  0  0  0  0
    1.7239    1.1882    0.2483 C   0  0  0  0  0  0  0  0  0  0  0  0
    0.4645    0.6596   -0.0729 C   0  0  0  0  0  0  0  0  0  0  0  0
    0.3013   -0.7302   -0.1949 C   0  0  0  0  0  0  0  0  0  0  0  0
    1.3950   -1.5842    0.0116 C   0  0  0  0  0  0  0  0  0  0  0  0
   -1.0519   -1.2637   -0.5723 C   0  0  0  0  0  0  0  0  0  0  0  0
   -2.1387   -0.5403    0.2351 C   0  0  0  0  0  0  0  0  0  0  0  0
   -2.0270    1.0065    0.1978 C   0  0  0  0  0  0  0  0  0  0  0  0
   -0.7049    1.5569   -0.3795 C   0  0  0  0  0  0  0  0  0  0  0  0
    3.4861   -1.7115    0.5100 H   0  0  0  0  0  0  0  0  0  0  0  0
    3.7774    0.7407    0.7179 H   0  0  0  0  0  0  0  0  0  0  0  0
    1.8676    2.2586    0.3255 H   0  0  0  0  0  0  0  0  0  0  0  0
    1.2819   -2.6567   -0.0861 H   0  0  0  0  0  0  0  0  0  0  0  0
   -1.1185   -2.3559   -0.3752 H   0  0  0  0  0  0  0  0  0  0  0  0
   -1.2190   -1.0961   -1.6582 H   0  0  0  0  0  0  0  0  0  0  0  0
   -2.0690   -0.8796    1.2926 H   0  0  0  0  0  0  0  0  0  0  0  0
   -3.1377   -0.8512   -0.1404 H   0  0  0  0  0  0  0  0  0  0  0  0
   -2.1499    1.3934    1.2333 H   0  0  0  0  0  0  0  0  0  0  0  0
   -2.8690    1.4207   -0.3986 H   0  0  0  0  0  0  0  0  0  0  0  0
   -0.7963    1.6372   -1.4844 H   0  0  0  0  0  0  0  0  0  0  0  0
   -0.5332    2.5810    0.0184 H   0  0  0  0  0  0  0  0  0  0  0  0
  1  2  2  0
  2  3  1  0
  3  4  2  0
  4  5  1  0
  5  6  2  0
  5  7  1  0
  7  8  1  0
  8  9  1  0
  9 10  1  0
  6  1  1  0
 10  4  1  0
  1 11  1  0
  2 12  1  0
  3 13  1  0
  6 14  1  0
  7 15  1  0
  7 16  1  0
  8 17  1  0
  8 18  1  0
  9 19  1  0
  9 20  1  0
 10 21  1  0
 10 22  1  0
M  END
>  <UniqueID>  (5) 
4

>  <SMILES>  (5) 
c1ccc2c(c1)CCCC2

>  <Energy>  (5) 
25.819761054557386

>  <Genealogy>  (5) 
c1ccc2c(c1)CCCC2 (3D coordinates assigned)
c1ccc2c(c1)CCCC2 (nonaromatic ring conformer: 25.819761054557386 kcal/mol)

$$$$
various pHs
     RDKit          3D

 19 19  0  0  0  0  0  0  0  0999 V2000
   -1.6213   -0.5332   -1.3155 N   0  0  0  0  0  0  0  0  0  0  0  0
   -1.7114   -0.2222    0.1138 C   0  0  1  0  0  0  0  0  0  0  0  0
   -0.4511   -0.7139    0.8550 C   0  0  0  0  0  0  0  0  0  0  0  0
    0.8171   -0.1496    0.2786 C   0  0  0  0  0  0  0  0  0  0  0  0
    1.7996   -0.8660   -0.3682 C   0  0  0  0  0  0  0  0  0  0  0  0
    2.7702   -0.0094   -0.7186 N   0  0  0  0  0  0  0  0  0  0  0  0
    2.3638    1.1965   -0.2789 C   0  0  0  0  0  0  0  0  0  0  0  0
    1.1667    1.1513    0.3431 N   0  0  0  0  0  0  0  0  0  0  0  0
   -1.9281    1.2544    0.3264 C   0  0  0  0  0  0  0  0  0  0  0  0
   -2.1719    1.6933    1.4814 O   0  0  0  0  0  0  0  0  0  0  0  0
   -1.8648    2.1436   -0.7407 O   0  0  0  0  0  0  0  0  0  0  0  0
   -2.5373   -0.2951   -1.7619 H   0  0  0  0  0  0  0  0  0  0  0  0
   -1.5128   -1.5684   -1.4220 H   0  0  0  0  0  0  0  0  0  0  0  0
   -2.5909   -0.7565    0.5399 H   0  0  0  0  0  0  0  0  0  0  0  0
   -0.5111   -0.4455    1.9319 H   0  0  0  0  0  0  0  0  0  0  0  0
   -0.4172   -1.8241    0.8003 H   0  0  0  0  0  0  0  0  0  0  0  0
    1.8088   -1.9292   -0.5701 H   0  0  0  0  0  0  0  0  0  0  0  0
    3.6558   -0.2315   -1.2246 H   0  0  0  0  0  0  0  0  0  0  0  0
    2.9360    2.1057   -0.4077 H   0  0  0  0  0  0  0  0  0  0  0  0
  1  2  1  0
  2  3  1  0
  3  4  1  0
  4  5  2  0
  5  6  1  0
  6  7  1  0
  7  8  2  0
  2  9  1  0
  9 10  2  0
  9 11  1  0
  8  4  1  0
  1 12  1  0
  1 13  1  0
  2 14  1  1
  3 15  1  0
  3 16  1  0
  5 17  1  0
  6 18  1  0
  7 19  1  0
M  CHG  1  11  -1
M  END
>  <UniqueID>  (6) 
5

>  <SMILES>  (6) 
N[C@@H](Cc1c[nH]cn1)C(=O)[O-]

>  <Energy>  (6) 
41.53338391561024

>  <Genealogy>  (6) 
N[C@@H](Cc1c[nH]cn1)C(=O)[O-] (protonated)
N[C@@H](Cc1c[nH]cn1)C(=O)[O-] (3D coordinates assigned)
N[C@@H](Cc1c[nH]cn1)C(=O)[O-] (optimized conformer: 41.53338391561024 kcal/mol)

$$$$
various pHs
     RDKit          3D

 19 19  0  0  0  0  0  0  0  0999 V2000
   -1.5613   -1.3031   -0.1899 N   0  0  0  0  0  0  0  0  0  0  0  0
   -1.4262    0.1235    0.1230 C   0  0  1  0  0  0  0  0  0  0  0  0
   -0.1638    0.6980   -0.5504 C   0  0  0  0  0  0  0  0  0  0  0  0
    1.1286    0.0876   -0.0698 C   0  0  0  0  0  0  0  0  0  0  0  0
    1.3237   -0.8298    0.9461 C   0  0  0  0  0  0  0  0  0  0  0  0
    2.6405   -1.0958    1.0570 N   0  0  0  0  0  0  0  0  0  0  0  0
    3.2181   -0.3318    0.1064 C   0  0  0  0  0  0  0  0  0  0  0  0
    2.3268    0.3971   -0.5895 N   0  0  0  0  0  0  0  0  0  0  0  0
   -2.6484    0.8996   -0.3077 C   0  0  0  0  0  0  0  0  0  0  0  0
   -2.7556    2.1172   -0.0039 O   0  0  0  0  0  0  0  0  0  0  0  0
   -3.6697    0.2875   -1.0259 O   0  0  0  0  0  0  0  0  0  0  0  0
   -1.7255   -1.4257   -1.2162 H   0  0  0  0  0  0  0  0  0  0  0  0
   -2.3936   -1.6841    0.3169 H   0  0  0  0  0  0  0  0  0  0  0  0
   -1.3298    0.2386    1.2254 H   0  0  0  0  0  0  0  0  0  0  0  0
   -0.1073    1.7920   -0.3613 H   0  0  0  0  0  0  0  0  0  0  0  0
   -0.2358    0.5499   -1.6501 H   0  0  0  0  0  0  0  0  0  0  0  0
    0.5660   -1.2771    1.5747 H   0  0  0  0  0  0  0  0  0  0  0  0
    4.2846   -0.3069   -0.0740 H   0  0  0  0  0  0  0  0  0  0  0  0
    2.5288    1.0632   -1.3680 H   0  0  0  0  0  0  0  0  0  0  0  0
  1  2  1  0
  2  3  1  0
  3  4  1  0
  4  5  2  0
  5  6  1  0
  6  7  2  0
  7  8  1  0
  2  9  1  0
  9 10  2  0
  9 11  1  0
  8  4  1  0
  1 12  1  0
  1 13  1  0
  2 14  1  1
  3 15  1  0
  3 16  1  0
  5 17  1  0
  7 18  1  0
  8 19  1  0
M  CHG  1  11  -1
M  END
>  <UniqueID>  (7) 
6

>  <SMILES>  (7) 
N[C@@H](Cc1cnc[nH]1)C(=O)[O-]

>  <Energy>  (7) 
43.64577368922939

>  <Genealogy>  (7) 
N[C@@H](Cc1c[nH]cn1)C(=O)[O-] (protonated)
N[C@@H](Cc1cnc[nH]1)C(=O)[O-] (tautomer)
N[C@@H](Cc1cnc[nH]1)C(=O)[O-] (3D coordinates assigned)
N[C@@H](Cc1cnc[nH]1)C(=O)[O-] (optimized conformer: 43.64577368922939 kcal/mol)

$$$$
various pHs
     RDKit          3D

 21 21  0  0  0  0  0  0  0  0999 V2000
   -2.8346   -0.3048   -0.2100 N   0  0  0  0  0  0  0  0  0  0  0  0
   -1.4399   -0.2988    0.2464 C   0  0  1  0  0  0  0  0  0  0  0  0
   -0.5005    0.1404   -0.8955 C   0  0  0  0  0  0  0  0  0  0  0  0
    0.9440    0.0396   -0.4982 C   0  0  0  0  0  0  0  0  0  0  0  0
    1.8364    1.0851   -0.3854 C   0  0  0  0  0  0  0  0  0  0  0  0
    3.0260    0.5804   -0.0113 N   0  0  0  0  0  0  0  0  0  0  0  0
    2.8421   -0.7502    0.0941 C   0  0  0  0  0  0  0  0  0  0  0  0
    1.5779   -1.1098   -0.1992 N   0  0  0  0  0  0  0  0  0  0  0  0
   -1.2900    0.5992    1.4479 C   0  0  0  0  0  0  0  0  0  0  0  0
   -1.5586    1.8273    1.3659 O   0  0  0  0  0  0  0  0  0  0  0  0
   -0.8509    0.0732    2.6563 O   0  0  0  0  0  0  0  0  0  0  0  0
   -3.1220    0.6476   -0.5347 H   0  0  0  0  0  0  0  0  0  0  0  0
   -2.9459   -0.9828   -0.9988 H   0  0  0  0  0  0  0  0  0  0  0  0
   -3.4624   -0.6062    0.5709 H   0  0  0  0  0  0  0  0  0  0  0  0
   -1.1681   -1.3362    0.5470 H   0  0  0  0  0  0  0  0  0  0  0  0
   -0.6620   -0.5101   -1.7817 H   0  0  0  0  0  0  0  0  0  0  0  0
   -0.7364    1.1846   -1.1978 H   0  0  0  0  0  0  0  0  0  0  0  0
    1.6368    2.1345   -0.5592 H   0  0  0  0  0  0  0  0  0  0  0  0
    3.9089    1.1099    0.1608 H   0  0  0  0  0  0  0  0  0  0  0  0
    3.6188   -1.4477    0.3792 H   0  0  0  0  0  0  0  0  0  0  0  0
    1.1803   -2.0752   -0.1969 H   0  0  0  0  0  0  0  0  0  0  0  0
  1  2  1  0
  2  3  1  0
  3  4  1  0
  4  5  2  0
  5  6  1  0
  6  7  1  0
  7  8  2  0
  2  9  1  0
  9 10  2  0
  9 11  1  0
  8  4  1  0
  1 12  1  0
  1 13  1  0
  1 14  1  0
  2 15  1  1
  3 16  1  0
  3 17  1  0
  5 18  1  0
  6 19  1  0
  7 20  1  0
  8 21  1  0
M  CHG  3   1   1   8   1  11  -1
M  END
>  <UniqueID>  (8) 
7

>  <SMILES>  (8) 
[NH3+][C@@H](Cc1c[nH]c[nH+]1)C(=O)[O-]

>  <Energy>  (8) 
43.527571783704914

>  <Genealogy>  (8) 
[NH3+][C@@H](Cc1c[nH]c[nH+]1)C(=O)[O-] (protonated)
[NH3+][C@@H](Cc1c[nH]c[nH+]1)C(=O)[O-] (3D coordinates assigned)
[NH3+][C@@H](Cc1c[nH]c[nH+]1)C(=O)[O-] (optimized conformer: 43.527571783704914 kcal/mol)

$$$$
various pHs
     RDKit          3D

 20 20  0  0  0  0  0  0  0  0999 V2000
   -1.3328    0.3552    1.3202 N   0  0  0  0  0  0  0  0  0  0  0  0
   -1.1800    0.6281   -0.1158 C   0  0  1  0  0  0  0  0  0  0  0  0
   -0.3660   -0.4882   -0.8082 C   0  0  0  0  0  0  0  0  0  0  0  0
    1.0476   -0.5443   -0.3068 C   0  0  0  0  0  0  0  0  0  0  0  0
    1.6371   -1.5894    0.3683 C   0  0  0  0  0  0  0  0  0  0  0  0
    2.9170   -1.2692    0.6447 N   0  0  0  0  0  0  0  0  0  0  0  0
    3.0728   -0.0323    0.1250 C   0  0  0  0  0  0  0  0  0  0  0  0
    1.9540    0.4334   -0.4609 N   0  0  0  0  0  0  0  0  0  0  0  0
   -2.5388    0.7940   -0.7546 C   0  0  0  0  0  0  0  0  0  0  0  0
   -3.2712    1.7620   -0.4190 O   0  0  0  0  0  0  0  0  0  0  0  0
   -3.0002   -0.1047   -1.7109 O   0  0  0  0  0  0  0  0  0  0  0  0
   -0.3964    0.3164    1.7836 H   0  0  0  0  0  0  0  0  0  0  0  0
   -1.8291   -0.5540    1.4688 H   0  0  0  0  0  0  0  0  0  0  0  0
   -1.8801    1.1221    1.7748 H   0  0  0  0  0  0  0  0  0  0  0  0
   -0.6352    1.5906   -0.2451 H   0  0  0  0  0  0  0  0  0  0  0  0
   -0.8609   -1.4708   -0.6435 H   0  0  0  0  0  0  0  0  0  0  0  0
   -0.3308   -0.3031   -1.9038 H   0  0  0  0  0  0  0  0  0  0  0  0
    1.1678   -2.5242    0.6447 H   0  0  0  0  0  0  0  0  0  0  0  0
    3.9998    0.5236    0.1734 H   0  0  0  0  0  0  0  0  0  0  0  0
    1.8255    1.3547   -0.9350 H   0  0  0  0  0  0  0  0  0  0  0  0
  1  2  1  0
  2  3  1  0
  3  4  1  0
  4  5  2  0
  5  6  1  0
  6  7  2  0
  7  8  1  0
  2  9  1  0
  9 10  2  0
  9 11  1  0
  8  4  1  0
  1 12  1  0
  1 13  1  0
  1 14  1  0
  2 15  1  1
  3 16  1  0
  3 17  1  0
  5 18  1  0
  7 19  1  0
  8 20  1  0
M  CHG  2   1   1  11  -1
M  END
>  <UniqueID>  (9) 
8

>  <SMILES>  (9) 
[NH3+][C@@H](Cc1cnc[nH]1)C(=O)[O-]

>  <Energy>  (9) 
42.9167381078942

>  <Genealogy>  (9) 
[NH3+][C@@H](Cc1c[nH]cn1)C(=O)[O-] (protonated)
[NH3+][C@@H](Cc1cnc[nH]1)C(=O)[O-] (tautomer)
[NH3+][C@@H](Cc1cnc[nH]1)C(=O)[O-] (3D coordinates assigned)
[NH3+][C@@H](Cc1cnc[nH]1)C(=O)[O-] (optimized conformer: 42.9167381078942 kcal/mol)

$$$$
various pHs
     RDKit          3D

 20 20  0  0  0  0  0  0  0  0999 V2000
   -1.7140   -0.8702    0.9643 N   0  0  0  0  0  0  0  0  0  0  0  0
   -1.5914    0.3990    0.2371 C   0  0  1  0  0  0  0  0  0  0  0  0
   -0.5331    0.3107   -0.8828 C   0  0  0  0  0  0  0  0  0  0  0  0
    0.8361    0.0351   -0.3346 C   0  0  0  0  0  0  0  0  0  0  0  0
    1.6015   -1.0877   -0.5709 C   0  0  0  0  0  0  0  0  0  0  0  0
    2.7617   -0.9502    0.0960 N   0  0  0  0  0  0  0  0  0  0  0  0
    2.6866    0.2422    0.7188 C   0  0  0  0  0  0  0  0  0  0  0  0
    1.5200    0.8679    0.4723 N   0  0  0  0  0  0  0  0  0  0  0  0
   -2.9218    0.8026   -0.3411 C   0  0  0  0  0  0  0  0  0  0  0  0
   -3.9198    0.0363   -0.2701 O   0  0  0  0  0  0  0  0  0  0  0  0
   -3.0590    2.0425   -0.9533 O   0  0  0  0  0  0  0  0  0  0  0  0
   -0.8438   -1.0294    1.5220 H   0  0  0  0  0  0  0  0  0  0  0  0
   -1.8004   -1.6595    0.2825 H   0  0  0  0  0  0  0  0  0  0  0  0
   -1.2943    1.1929    0.9578 H   0  0  0  0  0  0  0  0  0  0  0  0
   -0.8167   -0.4857   -1.6058 H   0  0  0  0  0  0  0  0  0  0  0  0
   -0.4915    1.2718   -1.4398 H   0  0  0  0  0  0  0  0  0  0  0  0
    1.3354   -1.9421   -1.1794 H   0  0  0  0  0  0  0  0  0  0  0  0
    3.5561   -1.6268    0.1242 H   0  0  0  0  0  0  0  0  0  0  0  0
    3.4718    0.6498    1.3423 H   0  0  0  0  0  0  0  0  0  0  0  0
    1.2166    1.8007    0.8301 H   0  0  0  0  0  0  0  0  0  0  0  0
  1  2  1  0
  2  3  1  0
  3  4  1  0
  4  5  2  0
  5  6  1  0
  6  7  1  0
  7  8  2  0
  2  9  1  0
  9 10  2  0
  9 11  1  0
  8  4  1  0
  1 12  1  0
  1 13  1  0
  2 14  1  1
  3 15  1  0
  3 16  1  0
  5 17  1  0
  6 18  1  0
  7 19  1  0
  8 20  1  0
M  CHG  2   8   1  11  -1
M  END
>  <UniqueID>  (10) 
9

>  <SMILES>  (10) 
N[C@@H](Cc1c[nH]c[nH+]1)C(=O)[O-]

>  <Energy>  (10) 
43.42801909580539

>  <Genealogy>  (10) 
N[C@@H](Cc1c[nH]c[nH+]1)C(=O)[O-] (protonated)
N[C@@H](Cc1c[nH]c[nH+]1)C(=O)[O-] (3D coordinates assigned)
N[C@@H](Cc1c[nH]c[nH+]1)C(=O)[O-] (optimized conformer: 43.42801909580539 kcal/mol)

$$$$
tautomers
     RDKit          3D

 12 12  0  0  0  0  0  0  0  0999 V2000
    2.5563    0.2555   -0.3273 O   0  0  0  0  0  0  0  0  0  0  0  0
    1.1753    0.0885   -0.2694 C   0  0  0  0  0  0  0  0  0  0  0  0
    0.4799    0.2897    0.9305 C   0  0  0  0  0  0  0  0  0  0  0  0
   -0.9054    0.1141    0.9554 C   0  0  0  0  0  0  0  0  0  0  0  0
   -1.5792   -0.2582   -0.2095 C   0  0  0  0  0  0  0  0  0  0  0  0
   -0.8524   -0.4499   -1.3871 C   0  0  0  0  0  0  0  0  0  0  0  0
    0.4965   -0.2740   -1.3916 N   0  0  0  0  0  0  0  0  0  0  0  0
    3.0914    0.5249    0.4901 H   0  0  0  0  0  0  0  0  0  0  0  0
    1.0058    0.5783    1.8317 H   0  0  0  0  0  0  0  0  0  0  0  0
   -1.4553    0.2661    1.8751 H   0  0  0  0  0  0  0  0  0  0  0  0
   -2.6526   -0.3967   -0.2003 H   0  0  0  0  0  0  0  0  0  0  0  0
   -1.3605   -0.7384   -2.2976 H   0  0  0  0  0  0  0  0  0  0  0  0
  1  2  1  0
  2  3  2  0
  3  4  1  0
  4  5  2  0
  5  6  1  0
  6  7  2  0
  7  2  1  0
  1  8  1  0
  3  9  1  0
  4 10  1  0
  5 11  1  0
  6 12  1  0
M  END
>  <UniqueID>  (11) 
10

>  <SMILES>  (11) 
Oc1ccccn1

>  <Energy>  (11) 
10.98755241147258

>  <Genealogy>  (11) 
Oc1ccccn1 (tautomer)
Oc1ccccn1 (3D coordinates assigned)
Oc1ccccn1 (optimized conformer: 10.98755241147258 kcal/mol)

$$$$
tautomers
     RDKit          3D

 12 12  0  0  0  0  0  0  0  0999 V2000
    1.8500   -1.8670    0.0243 O   0  0  0  0  0  0  0  0  0  0  0  0
    0.9632   -0.9721    0.0126 C   0  0  0  0  0  0  0  0  0  0  0  0
    1.3337    0.3771    0.0209 C   0  0  0  0  0  0  0  0  0  0  0  0
    0.3408    1.3585    0.0078 C   0  0  0  0  0  0  0  0  0  0  0  0
   -1.0037    0.9846   -0.0132 C   0  0  0  0  0  0  0  0  0  0  0  0
   -1.3361   -0.3724   -0.0209 C   0  0  0  0  0  0  0  0  0  0  0  0
   -0.3556   -1.3174   -0.0079 N   0  0  0  0  0  0  0  0  0  0  0  0
    2.3783    0.6628    0.0372 H   0  0  0  0  0  0  0  0  0  0  0  0
    0.6128    2.4061    0.0140 H   0  0  0  0  0  0  0  0  0  0  0  0
   -1.7807    1.7381   -0.0235 H   0  0  0  0  0  0  0  0  0  0  0  0
   -2.3765   -0.6715   -0.0372 H   0  0  0  0  0  0  0  0  0  0  0  0
   -0.6263   -2.3269   -0.0140 H   0  0  0  0  0  0  0  0  0  0  0  0
  1  2  2  0
  2  3  1  0
  3  4  2  0
  4  5  1  0
  5  6  2  0
  6  7  1  0
  7  2  1  0
  3  8  1  0
  4  9  1  0
  5 10  1  0
  6 11  1  0
  7 12  1  0
M  END
>  <UniqueID>  (12) 
11

>  <SMILES>  (12) 
O=c1cccc[nH]1

>  <Energy>  (12) 
10.989887200489932

>  <Genealogy>  (12) 
O=c1cccc[nH]1 (3D coordinates assigned)
O=c1cccc[nH]1 (optimized conformer: 10.989887200489932 kcal/mol)

$$$$
double bonds
     RDKit          3D

  9  8  0  0  0  0  0  0  0  0999 V2000
   -1.2450    0.0243    0.0158 C   0  0  0  0  0  0  0  0  0  0  0  0
    0.2091    0.4062    0.0158 C   0  0  0  0  0  0  0  0  0  0  0  0
    0.5874    2.1260    0.0888 Cl  0  0  0  0  0  0  0  0  0  0  0  0
    1.1862   -0.5190   -0.0374 C   0  0  0  0  0  0  0  0  0  0  0  0
    0.8841   -1.8438   -0.0935 F   0  0  0  0  0  0  0  0  0  0  0  0
    3.2459   -0.0114   -0.0388 I   0  0  0  0  0  0  0  0  0  0  0  0
   -1.7446    0.4864   -0.8610 H   0  0  0  0  0  0  0  0  0  0  0  0
   -1.7233    0.4051    0.9421 H   0  0  0  0  0  0  0  0  0  0  0  0
   -1.3997   -1.0739   -0.0318 H   0  0  0  0  0  0  0  0  0  0  0  0
  1  2  1  0
  2  3  1  0
  2  4  2  0
  4  5  1  0
  4  6  1  0
  1  7  1  0
  1  8  1  0
  1  9  1  0
M  END
>  <UniqueID>  (13) 
12

>  <SMILES>  (13) 
C/C(Cl)=C(\F)I

>  <Energy>  (13) 
3.9801580877644582

>  <Genealogy>  (13) 
C/C(Cl)=C(\F)I (cis-trans isomerization)
C/C(Cl)=C(\F)I (3D coordinates assigned)
C/C(Cl)=C(\F)I (optimized conformer: 3.9801580877644582 kcal/mol)

$$$$
chirality
     RDKit          3D

 14 13  0  0  0  0  0  0  0  0999 V2000
    1.5006   -0.2406   -0.6175 C   0  0  0  0  0  0  0  0  0  0  0  0
    0.7061    0.6510    0.3446 C   0  0  1  0  0  0  0  0  0  0  0  0
    1.4800    0.8712    1.4717 F   0  0  0  0  0  0  0  0  0  0  0  0
    0.4219    2.5710   -0.5853 I   0  0  0  0  0  0  0  0  0  0  0  0
   -0.6485    0.0349    0.7871 C   0  0  2  0  0  0  0  0  0  0  0  0
   -1.5517   -0.3672   -0.3853 C   0  0  0  0  0  0  0  0  0  0  0  0
   -1.3257    0.9650    1.5578 F   0  0  0  0  0  0  0  0  0  0  0  0
   -0.3479   -1.6911    2.0371 I   0  0  0  0  0  0  0  0  0  0  0  0
    1.6503   -1.2536   -0.1908 H   0  0  0  0  0  0  0  0  0  0  0  0
    0.9833   -0.3286   -1.5954 H   0  0  0  0  0  0  0  0  0  0  0  0
    2.5007    0.2066   -0.7995 H   0  0  0  0  0  0  0  0  0  0  0  0
   -1.7147    0.4869   -1.0742 H   0  0  0  0  0  0  0  0  0  0  0  0
   -2.5414   -0.6905    0.0011 H   0  0  0  0  0  0  0  0  0  0  0  0
   -1.1130   -1.2150   -0.9514 H   0  0  0  0  0  0  0  0  0  0  0  0
  1  2  1  0
  2  3  1  1
  2  4  1  0
  2  5  1  0
  5  6  1  0
  5  7  1  1
  5  8  1  0
  1  9  1  0
  1 10  1  0
  1 11  1  0
  6 12  1  0
  6 13  1  0
  6 14  1  0
M  END
>  <UniqueID>  (14) 
13

>  <SMILES>  (14) 
C[C@@](F)(I)[C@](C)(F)I

>  <Energy>  (14) 
6.557189001758665

>  <Genealogy>  (14) 
C[C@@](F)(I)[C@](C)(F)I (chirality)
C[C@@](F)(I)[C@](C)(F)I (3D coordinates assigned)
C[C@@](F)(I)[C@](C)(F)I (optimized conformer: 6.557189001758665 kcal/mol)

$$$$
chirality
     RDKit          3D

 14 13  0  0  0  0  0  0  0  0999 V2000
    1.9610   -0.0375   -0.0475 C   0  0  0  0  0  0  0  0  0  0  0  0
    0.5434   -0.2396    0.5005 C   0  0  2  0  0  0  0  0  0  0  0  0
    0.4261    0.4634    1.6882 F   0  0  0  0  0  0  0  0  0  0  0  0
    0.3389   -2.3372    0.9519 I   0  0  0  0  0  0  0  0  0  0  0  0
   -0.5434    0.2396   -0.5005 C   0  0  2  0  0  0  0  0  0  0  0  0
   -1.9610    0.0375    0.0475 C   0  0  0  0  0  0  0  0  0  0  0  0
   -0.4261   -0.4634   -1.6882 F   0  0  0  0  0  0  0  0  0  0  0  0
   -0.3389    2.3372   -0.9519 I   0  0  0  0  0  0  0  0  0  0  0  0
    2.7037   -0.4472    0.6695 H   0  0  0  0  0  0  0  0  0  0  0  0
    2.0849   -0.5605   -1.0194 H   0  0  0  0  0  0  0  0  0  0  0  0
    2.1897    1.0391   -0.1824 H   0  0  0  0  0  0  0  0  0  0  0  0
   -2.7037    0.4472   -0.6695 H   0  0  0  0  0  0  0  0  0  0  0  0
   -2.0849    0.5605    1.0194 H   0  0  0  0  0  0  0  0  0  0  0  0
   -2.1897   -1.0391    0.1824 H   0  0  0  0  0  0  0  0  0  0  0  0
  1  2  1  0
  2  3  1  1
  2  4  1  0
  2  5  1  0
  5  6  1  0
  5  7  1  6
  5  8  1  0
  1  9  1  0
  1 10  1  0
  1 11  1  0
  6 12  1  0
  6 13  1  0
  6 14  1  0
M  END
>  <UniqueID>  (15) 
14

>  <SMILES>  (15) 
C[C@](F)(I)[C@](C)(F)I

>  <Energy>  (15) 
6.481709129209842

>  <Genealogy>  (15) 
C[C@](F)(I)[C@](C)(F)I (chirality)
C[C@](F)(I)[C@](C)(F)I (3D coordinates assigned)
C[C@](F)(I)[C@](C)(F)I (optimized conformer: 6.481709129209842 kcal/mol)

$$$$
