EMPTY MOLECULE DESCRIBING GYPSUM PARAMETERS
     RDKit          2D

  0  0  0  0  0  0  0  0  0  0999 V2000
M  END
>  <source>  (1) 
sample_molecules.smi

>  <output_file>  (1) 
output.sdf

>  <separate_output_files>  (1) 
False

>  <num_processors>  (1) 
-1

>  <start_time>  (1) 
2018-11-08 17:10:49.025430

>  <end_time>  (1) 
2018-11-08 17:10:49.674771

>  <run_time>  (1) 
0:00:00.649341

>  <min_ph>  (1) 
6.4

>  <max_ph>  (1) 
8.4

>  <ph_std_dev>  (1) 
1.0

>  <thoroughness>  (1) 
3

>  <max_variants_per_compound>  (1) 
5

>  <second_embed>  (1) 
False

>  <2d_output_only>  (1) 
False

>  <skip_optimize_geometry>  (1) 
False

>  <skip_alternate_ring_conformations>  (1) 
False

>  <skip_adding_hydrogen>  (1) 
False

>  <skip_making_tautomers>  (1) 
False

>  <skip_ennumerate_chiral_mol>  (1) 
False

>  <skip_ennumerate_double_bonds>  (1) 
False

>  <multithread_mode>  (1) 
multithreading

>  <Parallelizer>  (1) 
<gypsum.parallelizer.Parallelizer object at 0x7fad6ef92320>

$$$$
non-aromatic puckers
     RDKit          3D

 22 23  0  0  0  0  0  0  0  0999 V2000
    2.7958   -0.7294   -0.0383 C   0  0  0  0  0  0  0  0  0  0  0  0
    2.8056    0.6525   -0.2309 C   0  0  0  0  0  0  0  0  0  0  0  0
    1.6038    1.3631   -0.2675 C   0  0  0  0  0  0  0  0  0  0  0  0
    0.3780    0.6982   -0.1018 C   0  0  0  0  0  0  0  0  0  0  0  0
    0.3668   -0.7084    0.0660 C   0  0  0  0  0  0  0  0  0  0  0  0
    1.5841   -1.4069    0.1143 C   0  0  0  0  0  0  0  0  0  0  0  0
   -0.9190   -1.4653    0.3041 C   0  0  0  0  0  0  0  0  0  0  0  0
   -2.1545   -0.6882   -0.1598 C   0  0  0  0  0  0  0  0  0  0  0  0
   -2.1096    0.7467    0.3647 C   0  0  0  0  0  0  0  0  0  0  0  0
   -0.9034    1.4904   -0.2165 C   0  0  0  0  0  0  0  0  0  0  0  0
    3.7290   -1.2768   -0.0051 H   0  0  0  0  0  0  0  0  0  0  0  0
    3.7459    1.1742   -0.3542 H   0  0  0  0  0  0  0  0  0  0  0  0
    1.6277    2.4340   -0.4281 H   0  0  0  0  0  0  0  0  0  0  0  0
    1.5940   -2.4782    0.2733 H   0  0  0  0  0  0  0  0  0  0  0  0
   -1.0078   -1.6756    1.3921 H   0  0  0  0  0  0  0  0  0  0  0  0
   -0.8898   -2.4392   -0.2315 H   0  0  0  0  0  0  0  0  0  0  0  0
   -3.0694   -1.1928    0.2189 H   0  0  0  0  0  0  0  0  0  0  0  0
   -2.1998   -0.6817   -1.2714 H   0  0  0  0  0  0  0  0  0  0  0  0
   -3.0425    1.2767    0.0748 H   0  0  0  0  0  0  0  0  0  0  0  0
   -2.0483    0.7400    1.4756 H   0  0  0  0  0  0  0  0  0  0  0  0
   -0.7963    2.4623    0.3126 H   0  0  0  0  0  0  0  0  0  0  0  0
   -1.0903    1.7044   -1.2913 H   0  0  0  0  0  0  0  0  0  0  0  0
  1  2  2  0
  2  3  1  0
  3  4  2  0
  4  5  1  0
  5  6  2  0
  5  7  1  0
  7  8  1  0
  8  9  1  0
  9 10  1  0
  6  1  1  0
 10  4  1  0
  1 11  1  0
  2 12  1  0
  3 13  1  0
  6 14  1  0
  7 15  1  0
  7 16  1  0
  8 17  1  0
  8 18  1  0
  9 19  1  0
  9 20  1  0
 10 21  1  0
 10 22  1  0
M  END
>  <UniqueID>  (2) 
1

>  <SMILES>  (2) 
c1ccc2c(c1)CCCC2

>  <Energy>  (2) 
20.582423813791376

>  <Genealogy>  (2) 
c1ccc2c(c1)CCCC2 (3D coordinates assigned)
c1ccc2c(c1)CCCC2 (nonaromatic ring conformer: 20.582423813791376 kcal/mol)

$$$$
non-aromatic puckers
     RDKit          3D

 22 23  0  0  0  0  0  0  0  0999 V2000
    2.7937   -0.7341   -0.0820 C   0  0  0  0  0  0  0  0  0  0  0  0
    2.8077    0.6572   -0.1872 C   0  0  0  0  0  0  0  0  0  0  0  0
    1.6079    1.3720   -0.1841 C   0  0  0  0  0  0  0  0  0  0  0  0
    0.3788    0.7000   -0.0852 C   0  0  0  0  0  0  0  0  0  0  0  0
    0.3659   -0.7102    0.0494 C   0  0  0  0  0  0  0  0  0  0  0  0
    1.5800   -1.4158    0.0308 C   0  0  0  0  0  0  0  0  0  0  0  0
   -0.9289   -1.4868    0.1031 C   0  0  0  0  0  0  0  0  0  0  0  0
   -2.1213   -0.6164    0.5111 C   0  0  0  0  0  0  0  0  0  0  0  0
   -2.1428    0.6750   -0.3061 C   0  0  0  0  0  0  0  0  0  0  0  0
   -0.8935    1.5119   -0.0155 C   0  0  0  0  0  0  0  0  0  0  0  0
    3.7248   -1.2859   -0.0901 H   0  0  0  0  0  0  0  0  0  0  0  0
    3.7501    1.1833   -0.2692 H   0  0  0  0  0  0  0  0  0  0  0  0
    1.6362    2.4524   -0.2561 H   0  0  0  0  0  0  0  0  0  0  0  0
    1.5855   -2.4966    0.1012 H   0  0  0  0  0  0  0  0  0  0  0  0
   -1.1214   -1.9209   -0.9021 H   0  0  0  0  0  0  0  0  0  0  0  0
   -0.8374   -2.3260    0.8266 H   0  0  0  0  0  0  0  0  0  0  0  0
   -3.0635   -1.1800    0.3386 H   0  0  0  0  0  0  0  0  0  0  0  0
   -2.0579   -0.3752    1.5953 H   0  0  0  0  0  0  0  0  0  0  0  0
   -3.0484    1.2639   -0.0448 H   0  0  0  0  0  0  0  0  0  0  0  0
   -2.1903    0.4335   -1.3911 H   0  0  0  0  0  0  0  0  0  0  0  0
   -0.9767    1.9497    1.0029 H   0  0  0  0  0  0  0  0  0  0  0  0
   -0.8487    2.3492   -0.7456 H   0  0  0  0  0  0  0  0  0  0  0  0
  1  2  2  0
  2  3  1  0
  3  4  2  0
  4  5  1  0
  5  6  2  0
  5  7  1  0
  7  8  1  0
  8  9  1  0
  9 10  1  0
  6  1  1  0
 10  4  1  0
  1 11  1  0
  2 12  1  0
  3 13  1  0
  6 14  1  0
  7 15  1  0
  7 16  1  0
  8 17  1  0
  8 18  1  0
  9 19  1  0
  9 20  1  0
 10 21  1  0
 10 22  1  0
M  END
>  <UniqueID>  (3) 
2

>  <SMILES>  (3) 
c1ccc2c(c1)CCCC2

>  <Energy>  (3) 
20.582423814676574

>  <Genealogy>  (3) 
c1ccc2c(c1)CCCC2 (3D coordinates assigned)
c1ccc2c(c1)CCCC2 (nonaromatic ring conformer: 20.582423814676574 kcal/mol)

$$$$
non-aromatic puckers
     RDKit          3D

 22 23  0  0  0  0  0  0  0  0999 V2000
    2.7541   -0.7492   -0.2499 C   0  0  0  0  0  0  0  0  0  0  0  0
    2.7666    0.6424   -0.3852 C   0  0  0  0  0  0  0  0  0  0  0  0
    1.5877    1.3746   -0.2150 C   0  0  0  0  0  0  0  0  0  0  0  0
    0.3871    0.7115    0.0803 C   0  0  0  0  0  0  0  0  0  0  0  0
    0.3730   -0.6868    0.2132 C   0  0  0  0  0  0  0  0  0  0  0  0
    1.5628   -1.4140    0.0571 C   0  0  0  0  0  0  0  0  0  0  0  0
   -0.9112   -1.3647    0.6104 C   0  0  0  0  0  0  0  0  0  0  0  0
   -2.1330   -0.7713   -0.1240 C   0  0  0  0  0  0  0  0  0  0  0  0
   -2.0429    0.7452   -0.4383 C   0  0  0  0  0  0  0  0  0  0  0  0
   -0.8967    1.4651    0.2858 C   0  0  0  0  0  0  0  0  0  0  0  0
    3.6702   -1.3121   -0.3746 H   0  0  0  0  0  0  0  0  0  0  0  0
    3.6918    1.1542   -0.6165 H   0  0  0  0  0  0  0  0  0  0  0  0
    1.6111    2.4526   -0.3134 H   0  0  0  0  0  0  0  0  0  0  0  0
    1.5693   -2.4901    0.1769 H   0  0  0  0  0  0  0  0  0  0  0  0
   -1.0457   -1.2319    1.7057 H   0  0  0  0  0  0  0  0  0  0  0  0
   -0.8612   -2.4570    0.4084 H   0  0  0  0  0  0  0  0  0  0  0  0
   -2.2732   -1.3213   -1.0805 H   0  0  0  0  0  0  0  0  0  0  0  0
   -3.0392   -0.9652    0.4903 H   0  0  0  0  0  0  0  0  0  0  0  0
   -1.8981    0.8765   -1.5337 H   0  0  0  0  0  0  0  0  0  0  0  0
   -3.0043    1.2380   -0.1765 H   0  0  0  0  0  0  0  0  0  0  0  0
   -0.8157    2.5034   -0.1035 H   0  0  0  0  0  0  0  0  0  0  0  0
   -1.1169    1.5184    1.3739 H   0  0  0  0  0  0  0  0  0  0  0  0
  1  2  2  0
  2  3  1  0
  3  4  2  0
  4  5  1  0
  5  6  2  0
  5  7  1  0
  7  8  1  0
  8  9  1  0
  9 10  1  0
  6  1  1  0
 10  4  1  0
  1 11  1  0
  2 12  1  0
  3 13  1  0
  6 14  1  0
  7 15  1  0
  7 16  1  0
  8 17  1  0
  8 18  1  0
  9 19  1  0
  9 20  1  0
 10 21  1  0
 10 22  1  0
M  END
>  <UniqueID>  (4) 
3

>  <SMILES>  (4) 
c1ccc2c(c1)CCCC2

>  <Energy>  (4) 
25.81976105777789

>  <Genealogy>  (4) 
c1ccc2c(c1)CCCC2 (3D coordinates assigned)
c1ccc2c(c1)CCCC2 (nonaromatic ring conformer: 25.81976105777789 kcal/mol)

$$$$
various pHs
     RDKit          3D

 20 20  0  0  0  0  0  0  0  0999 V2000
   -1.4223    0.8615    1.1409 N   0  0  0  0  0  0  0  0  0  0  0  0
   -1.5010    0.3790   -0.2419 C   0  0  1  0  0  0  0  0  0  0  0  0
   -0.5289   -0.7954   -0.4499 C   0  0  0  0  0  0  0  0  0  0  0  0
    0.8891   -0.3900   -0.1719 C   0  0  0  0  0  0  0  0  0  0  0  0
    1.7000   -0.8828    0.8291 C   0  0  0  0  0  0  0  0  0  0  0  0
    2.8951   -0.2720    0.7371 N   0  0  0  0  0  0  0  0  0  0  0  0
    2.7953    0.5719   -0.3085 C   0  0  0  0  0  0  0  0  0  0  0  0
    1.5792    0.5200   -0.8847 N   0  0  0  0  0  0  0  0  0  0  0  0
   -2.9071   -0.0339   -0.6056 C   0  0  0  0  0  0  0  0  0  0  0  0
   -3.1765   -0.3596   -1.7920 O   0  0  0  0  0  0  0  0  0  0  0  0
   -3.9186   -0.0496    0.3486 O   0  0  0  0  0  0  0  0  0  0  0  0
   -1.7570    0.1151    1.7937 H   0  0  0  0  0  0  0  0  0  0  0  0
   -2.0537    1.6888    1.2479 H   0  0  0  0  0  0  0  0  0  0  0  0
   -1.2081    1.2110   -0.9204 H   0  0  0  0  0  0  0  0  0  0  0  0
   -0.8152   -1.6393    0.2162 H   0  0  0  0  0  0  0  0  0  0  0  0
   -0.5871   -1.1555   -1.4999 H   0  0  0  0  0  0  0  0  0  0  0  0
    1.4419   -1.6284    1.5698 H   0  0  0  0  0  0  0  0  0  0  0  0
    3.7279   -0.4220    1.3483 H   0  0  0  0  0  0  0  0  0  0  0  0
    3.5981    1.2140   -0.6467 H   0  0  0  0  0  0  0  0  0  0  0  0
    1.2487    1.0671   -1.7102 H   0  0  0  0  0  0  0  0  0  0  0  0
  1  2  1  0
  2  3  1  0
  3  4  1  0
  4  5  2  0
  5  6  1  0
  6  7  1  0
  7  8  2  0
  2  9  1  0
  9 10  2  0
  9 11  1  0
  8  4  1  0
  1 12  1  0
  1 13  1  0
  2 14  1  6
  3 15  1  0
  3 16  1  0
  5 17  1  0
  6 18  1  0
  7 19  1  0
  8 20  1  0
M  CHG  2   8   1  11  -1
M  END
>  <UniqueID>  (5) 
4

>  <SMILES>  (5) 
N[C@@H](Cc1c[nH]c[nH+]1)C(=O)[O-]

>  <Energy>  (5) 
43.37267210368222

>  <Genealogy>  (5) 
N[C@@H](Cc1c[nH]c[nH+]1)C(=O)[O-] (protonated)
N[C@@H](Cc1c[nH]c[nH+]1)C(=O)[O-] (3D coordinates assigned)
N[C@@H](Cc1c[nH]c[nH+]1)C(=O)[O-] (optimized conformer: 43.37267210368222 kcal/mol)

$$$$
various pHs
     RDKit          3D

 21 21  0  0  0  0  0  0  0  0999 V2000
   -2.6293    1.0169    0.2524 N   0  0  0  0  0  0  0  0  0  0  0  0
   -1.4015    0.5453   -0.3994 C   0  0  1  0  0  0  0  0  0  0  0  0
   -0.3682    0.1076    0.6686 C   0  0  0  0  0  0  0  0  0  0  0  0
    1.0107   -0.1834    0.1300 C   0  0  0  0  0  0  0  0  0  0  0  0
    1.4809   -0.0278   -1.1636 C   0  0  0  0  0  0  0  0  0  0  0  0
    2.7749   -0.3943   -1.1883 N   0  0  0  0  0  0  0  0  0  0  0  0
    3.0756   -0.7605    0.0716 C   0  0  0  0  0  0  0  0  0  0  0  0
    2.0190   -0.6401    0.8966 N   0  0  0  0  0  0  0  0  0  0  0  0
   -1.7395   -0.5591   -1.3767 C   0  0  0  0  0  0  0  0  0  0  0  0
   -1.3483   -1.7425   -1.1899 O   0  0  0  0  0  0  0  0  0  0  0  0
   -2.5018   -0.2666   -2.5006 O   0  0  0  0  0  0  0  0  0  0  0  0
   -3.0675    0.2455    0.8075 H   0  0  0  0  0  0  0  0  0  0  0  0
   -2.4114    1.8177    0.8891 H   0  0  0  0  0  0  0  0  0  0  0  0
   -3.3110    1.3533   -0.4665 H   0  0  0  0  0  0  0  0  0  0  0  0
   -0.9683    1.3938   -0.9749 H   0  0  0  0  0  0  0  0  0  0  0  0
   -0.2627    0.9154    1.4244 H   0  0  0  0  0  0  0  0  0  0  0  0
   -0.7426   -0.7934    1.2014 H   0  0  0  0  0  0  0  0  0  0  0  0
    0.9332    0.3273   -2.0261 H   0  0  0  0  0  0  0  0  0  0  0  0
    3.4145   -0.3918   -2.0133 H   0  0  0  0  0  0  0  0  0  0  0  0
    4.0517   -1.1079    0.3845 H   0  0  0  0  0  0  0  0  0  0  0  0
    1.9915   -0.8555    1.9180 H   0  0  0  0  0  0  0  0  0  0  0  0
  1  2  1  0
  2  3  1  0
  3  4  1  0
  4  5  2  0
  5  6  1  0
  6  7  1  0
  7  8  2  0
  2  9  1  0
  9 10  2  0
  9 11  1  0
  8  4  1  0
  1 12  1  0
  1 13  1  0
  1 14  1  0
  2 15  1  6
  3 16  1  0
  3 17  1  0
  5 18  1  0
  6 19  1  0
  7 20  1  0
  8 21  1  0
M  CHG  3   1   1   8   1  11  -1
M  END
>  <UniqueID>  (6) 
5

>  <SMILES>  (6) 
[NH3+][C@@H](Cc1c[nH]c[nH+]1)C(=O)[O-]

>  <Energy>  (6) 
47.300843533563885

>  <Genealogy>  (6) 
[NH3+][C@@H](Cc1c[nH]c[nH+]1)C(=O)[O-] (protonated)
[NH3+][C@@H](Cc1c[nH]c[nH+]1)C(=O)[O-] (3D coordinates assigned)
[NH3+][C@@H](Cc1c[nH]c[nH+]1)C(=O)[O-] (optimized conformer: 47.300843533563885 kcal/mol)

$$$$
various pHs
     RDKit          3D

 19 19  0  0  0  0  0  0  0  0999 V2000
    2.6906   -1.1206   -0.3038 N   0  0  0  0  0  0  0  0  0  0  0  0
    1.4190   -0.4076   -0.4372 C   0  0  1  0  0  0  0  0  0  0  0  0
    0.5266   -0.6386    0.8006 C   0  0  0  0  0  0  0  0  0  0  0  0
   -0.8292   -0.0157    0.6376 C   0  0  0  0  0  0  0  0  0  0  0  0
   -1.7825   -0.3744   -0.2900 C   0  0  0  0  0  0  0  0  0  0  0  0
   -2.8524    0.4124   -0.1046 N   0  0  0  0  0  0  0  0  0  0  0  0
   -2.5319    1.2221    0.9225 C   0  0  0  0  0  0  0  0  0  0  0  0
   -1.2944    0.9880    1.4083 N   0  0  0  0  0  0  0  0  0  0  0  0
    1.6897    1.0568   -0.6469 C   0  0  0  0  0  0  0  0  0  0  0  0
    1.3067    1.6263   -1.7027 O   0  0  0  0  0  0  0  0  0  0  0  0
    2.3621    1.7915    0.3226 O   0  0  0  0  0  0  0  0  0  0  0  0
    3.1419   -0.8644    0.6051 H   0  0  0  0  0  0  0  0  0  0  0  0
    2.4962   -2.1482   -0.2745 H   0  0  0  0  0  0  0  0  0  0  0  0
    0.8937   -0.8065   -1.3346 H   0  0  0  0  0  0  0  0  0  0  0  0
    1.0193   -0.2199    1.7055 H   0  0  0  0  0  0  0  0  0  0  0  0
    0.3927   -1.7295    0.9653 H   0  0  0  0  0  0  0  0  0  0  0  0
   -1.7054   -1.1494   -1.0414 H   0  0  0  0  0  0  0  0  0  0  0  0
   -3.7470    0.3984   -0.6424 H   0  0  0  0  0  0  0  0  0  0  0  0
   -3.1957    1.9792    1.3185 H   0  0  0  0  0  0  0  0  0  0  0  0
  1  2  1  0
  2  3  1  0
  3  4  1  0
  4  5  2  0
  5  6  1  0
  6  7  1  0
  7  8  2  0
  2  9  1  0
  9 10  2  0
  9 11  1  0
  8  4  1  0
  1 12  1  0
  1 13  1  0
  2 14  1  6
  3 15  1  0
  3 16  1  0
  5 17  1  0
  6 18  1  0
  7 19  1  0
M  CHG  1  11  -1
M  END
>  <UniqueID>  (7) 
6

>  <SMILES>  (7) 
N[C@@H](Cc1c[nH]cn1)C(=O)[O-]

>  <Energy>  (7) 
40.464493964270204

>  <Genealogy>  (7) 
N[C@@H](Cc1c[nH]cn1)C(=O)[O-] (protonated)
N[C@@H](Cc1c[nH]cn1)C(=O)[O-] (3D coordinates assigned)
N[C@@H](Cc1c[nH]cn1)C(=O)[O-] (optimized conformer: 40.464493964270204 kcal/mol)

$$$$
various pHs
     RDKit          3D

 20 20  0  0  0  0  0  0  0  0999 V2000
   -1.5189    0.9636   -0.5702 N   0  0  0  0  0  0  0  0  0  0  0  0
   -1.3952   -0.3378    0.1037 C   0  0  1  0  0  0  0  0  0  0  0  0
   -0.3401   -0.2815    1.2295 C   0  0  0  0  0  0  0  0  0  0  0  0
    1.0351   -0.0016    0.6996 C   0  0  0  0  0  0  0  0  0  0  0  0
    1.7668   -0.8189   -0.1336 C   0  0  0  0  0  0  0  0  0  0  0  0
    2.9424   -0.2182   -0.3693 N   0  0  0  0  0  0  0  0  0  0  0  0
    2.9023    0.9376    0.3205 C   0  0  0  0  0  0  0  0  0  0  0  0
    1.7445    1.1065    0.9938 N   0  0  0  0  0  0  0  0  0  0  0  0
   -2.7224   -0.7800    0.6708 C   0  0  0  0  0  0  0  0  0  0  0  0
   -2.8469   -1.9421    1.1402 O   0  0  0  0  0  0  0  0  0  0  0  0
   -3.8182    0.0761    0.6784 O   0  0  0  0  0  0  0  0  0  0  0  0
   -0.6181    1.2129   -1.0388 H   0  0  0  0  0  0  0  0  0  0  0  0
   -1.7665    1.7138    0.1160 H   0  0  0  0  0  0  0  0  0  0  0  0
   -2.2571    0.9128   -1.3098 H   0  0  0  0  0  0  0  0  0  0  0  0
   -1.0848   -1.0986   -0.6478 H   0  0  0  0  0  0  0  0  0  0  0  0
   -0.6206    0.5047    1.9644 H   0  0  0  0  0  0  0  0  0  0  0  0
   -0.3084   -1.2527    1.7698 H   0  0  0  0  0  0  0  0  0  0  0  0
    1.4686   -1.7779   -0.5368 H   0  0  0  0  0  0  0  0  0  0  0  0
    3.7251   -0.5734   -0.9615 H   0  0  0  0  0  0  0  0  0  0  0  0
    3.7123    1.6547    0.3359 H   0  0  0  0  0  0  0  0  0  0  0  0
  1  2  1  0
  2  3  1  0
  3  4  1  0
  4  5  2  0
  5  6  1  0
  6  7  1  0
  7  8  2  0
  2  9  1  0
  9 10  2  0
  9 11  1  0
  8  4  1  0
  1 12  1  0
  1 13  1  0
  1 14  1  0
  2 15  1  6
  3 16  1  0
  3 17  1  0
  5 18  1  0
  6 19  1  0
  7 20  1  0
M  CHG  2   1   1  11  -1
M  END
>  <UniqueID>  (8) 
7

>  <SMILES>  (8) 
[NH3+][C@@H](Cc1c[nH]cn1)C(=O)[O-]

>  <Energy>  (8) 
42.587192544747545

>  <Genealogy>  (8) 
[NH3+][C@@H](Cc1c[nH]cn1)C(=O)[O-] (protonated)
[NH3+][C@@H](Cc1c[nH]cn1)C(=O)[O-] (3D coordinates assigned)
[NH3+][C@@H](Cc1c[nH]cn1)C(=O)[O-] (optimized conformer: 42.587192544747545 kcal/mol)

$$$$
various pHs
     RDKit          3D

 20 20  0  0  0  0  0  0  0  0999 V2000
    1.3872    0.3188    1.2590 N   0  0  0  0  0  0  0  0  0  0  0  0
    1.2210   -0.5376    0.0766 C   0  0  1  0  0  0  0  0  0  0  0  0
    0.3011    0.1346   -0.9696 C   0  0  0  0  0  0  0  0  0  0  0  0
   -1.0988    0.3072   -0.4564 C   0  0  0  0  0  0  0  0  0  0  0  0
   -1.7525    1.4999   -0.2435 C   0  0  0  0  0  0  0  0  0  0  0  0
   -2.9948    1.2459    0.2139 N   0  0  0  0  0  0  0  0  0  0  0  0
   -3.0641   -0.1021    0.2647 C   0  0  0  0  0  0  0  0  0  0  0  0
   -1.9273   -0.6996   -0.1383 N   0  0  0  0  0  0  0  0  0  0  0  0
    2.5749   -0.8769   -0.5028 C   0  0  0  0  0  0  0  0  0  0  0  0
    2.9141   -0.4837   -1.6513 O   0  0  0  0  0  0  0  0  0  0  0  0
    3.4669   -1.6365    0.2440 O   0  0  0  0  0  0  0  0  0  0  0  0
    1.8118    1.2363    0.9889 H   0  0  0  0  0  0  0  0  0  0  0  0
    0.4628    0.4883    1.7170 H   0  0  0  0  0  0  0  0  0  0  0  0
    2.0063   -0.1521    1.9586 H   0  0  0  0  0  0  0  0  0  0  0  0
    0.7519   -1.4973    0.3896 H   0  0  0  0  0  0  0  0  0  0  0  0
    0.2523   -0.4935   -1.8855 H   0  0  0  0  0  0  0  0  0  0  0  0
    0.7197    1.1245   -1.2563 H   0  0  0  0  0  0  0  0  0  0  0  0
   -1.3529    2.4919   -0.4077 H   0  0  0  0  0  0  0  0  0  0  0  0
   -3.9417   -0.6432    0.5928 H   0  0  0  0  0  0  0  0  0  0  0  0
   -1.7375   -1.7248   -0.1935 H   0  0  0  0  0  0  0  0  0  0  0  0
  1  2  1  0
  2  3  1  0
  3  4  1  0
  4  5  2  0
  5  6  1  0
  6  7  2  0
  7  8  1  0
  2  9  1  0
  9 10  2  0
  9 11  1  0
  8  4  1  0
  1 12  1  0
  1 13  1  0
  1 14  1  0
  2 15  1  1
  3 16  1  0
  3 17  1  0
  5 18  1  0
  7 19  1  0
  8 20  1  0
M  CHG  2   1   1  11  -1
M  END
>  <UniqueID>  (9) 
8

>  <SMILES>  (9) 
[NH3+][C@@H](Cc1cnc[nH]1)C(=O)[O-]

>  <Energy>  (9) 
43.15497519942129

>  <Genealogy>  (9) 
[NH3+][C@@H](Cc1c[nH]cn1)C(=O)[O-] (protonated)
[NH3+][C@@H](Cc1cnc[nH]1)C(=O)[O-] (tautomer)
[NH3+][C@@H](Cc1cnc[nH]1)C(=O)[O-] (3D coordinates assigned)
[NH3+][C@@H](Cc1cnc[nH]1)C(=O)[O-] (optimized conformer: 43.15497519942129 kcal/mol)

$$$$
tautomers
     RDKit          3D

 12 12  0  0  0  0  0  0  0  0999 V2000
   -0.6158    1.5446    2.0356 O   0  0  0  0  0  0  0  0  0  0  0  0
   -0.3206    0.8042    1.0599 C   0  0  0  0  0  0  0  0  0  0  0  0
    0.7778    1.1193    0.2524 C   0  0  0  0  0  0  0  0  0  0  0  0
    1.0936    0.2902   -0.8255 C   0  0  0  0  0  0  0  0  0  0  0  0
    0.3140   -0.8382   -1.0845 C   0  0  0  0  0  0  0  0  0  0  0  0
   -0.7753   -1.1213   -0.2567 C   0  0  0  0  0  0  0  0  0  0  0  0
   -1.0701   -0.3024    0.7909 N   0  0  0  0  0  0  0  0  0  0  0  0
    1.3801    1.9959    0.4569 H   0  0  0  0  0  0  0  0  0  0  0  0
    1.9404    0.5217   -1.4586 H   0  0  0  0  0  0  0  0  0  0  0  0
    0.5509   -1.4870   -1.9177 H   0  0  0  0  0  0  0  0  0  0  0  0
   -1.3855   -1.9945   -0.4501 H   0  0  0  0  0  0  0  0  0  0  0  0
   -1.8894   -0.5327    1.3975 H   0  0  0  0  0  0  0  0  0  0  0  0
  1  2  2  0
  2  3  1  0
  3  4  2  0
  4  5  1  0
  5  6  2  0
  6  7  1  0
  7  2  1  0
  3  8  1  0
  4  9  1  0
  5 10  1  0
  6 11  1  0
  7 12  1  0
M  END
>  <UniqueID>  (10) 
9

>  <SMILES>  (10) 
O=c1cccc[nH]1

>  <Energy>  (10) 
10.989887216846563

>  <Genealogy>  (10) 
O=c1cccc[nH]1 (3D coordinates assigned)
O=c1cccc[nH]1 (optimized conformer: 10.989887216846563 kcal/mol)

$$$$
tautomers
     RDKit          3D

 12 12  0  0  0  0  0  0  0  0999 V2000
    2.4159   -0.8763    0.1997 O   0  0  0  0  0  0  0  0  0  0  0  0
    1.0952   -0.4542    0.0900 C   0  0  0  0  0  0  0  0  0  0  0  0
    0.7981    0.9121    0.0771 C   0  0  0  0  0  0  0  0  0  0  0  0
   -0.5328    1.3211   -0.0335 C   0  0  0  0  0  0  0  0  0  0  0  0
   -1.5470    0.3659   -0.1297 C   0  0  0  0  0  0  0  0  0  0  0  0
   -1.2116   -0.9904   -0.1134 C   0  0  0  0  0  0  0  0  0  0  0  0
    0.0906   -1.3687   -0.0049 N   0  0  0  0  0  0  0  0  0  0  0  0
    2.6470   -1.8626    0.2104 H   0  0  0  0  0  0  0  0  0  0  0  0
    1.5894    1.6471    0.1520 H   0  0  0  0  0  0  0  0  0  0  0  0
   -0.7775    2.3754   -0.0448 H   0  0  0  0  0  0  0  0  0  0  0  0
   -2.5814    0.6728   -0.2158 H   0  0  0  0  0  0  0  0  0  0  0  0
   -1.9860   -1.7421   -0.1870 H   0  0  0  0  0  0  0  0  0  0  0  0
  1  2  1  0
  2  3  2  0
  3  4  1  0
  4  5  2  0
  5  6  1  0
  6  7  2  0
  7  2  1  0
  1  8  1  0
  3  9  1  0
  4 10  1  0
  5 11  1  0
  6 12  1  0
M  END
>  <UniqueID>  (11) 
10

>  <SMILES>  (11) 
Oc1ccccn1

>  <Energy>  (11) 
10.688276159348257

>  <Genealogy>  (11) 
Oc1ccccn1 (tautomer)
Oc1ccccn1 (3D coordinates assigned)
Oc1ccccn1 (optimized conformer: 10.688276159348257 kcal/mol)

$$$$
double bonds
     RDKit          3D

  9  8  0  0  0  0  0  0  0  0999 V2000
   -1.1472   -0.2047   -0.0065 C   0  0  0  0  0  0  0  0  0  0  0  0
    0.1404    0.5678    0.0101 C   0  0  0  0  0  0  0  0  0  0  0  0
    0.0650    2.3277    0.0400 Cl  0  0  0  0  0  0  0  0  0  0  0  0
    1.3372   -0.0430    0.0027 C   0  0  0  0  0  0  0  0  0  0  0  0
    2.4758    0.6997    0.0183 F   0  0  0  0  0  0  0  0  0  0  0  0
    1.5594   -2.1536   -0.0328 I   0  0  0  0  0  0  0  0  0  0  0  0
   -1.2107   -0.8569    0.8899 H   0  0  0  0  0  0  0  0  0  0  0  0
   -1.2060   -0.8259   -0.9249 H   0  0  0  0  0  0  0  0  0  0  0  0
   -2.0140    0.4887    0.0031 H   0  0  0  0  0  0  0  0  0  0  0  0
  1  2  1  0
  2  3  1  0
  2  4  2  0
  4  5  1  0
  4  6  1  0
  1  7  1  0
  1  8  1  0
  1  9  1  0
M  END
>  <UniqueID>  (12) 
11

>  <SMILES>  (12) 
C/C(Cl)=C(/F)I

>  <Energy>  (12) 
2.964009359955589

>  <Genealogy>  (12) 
C/C(Cl)=C(/F)I (cis-trans isomerization)
C/C(Cl)=C(/F)I (3D coordinates assigned)
C/C(Cl)=C(/F)I (optimized conformer: 2.964009359955589 kcal/mol)

$$$$
chirality
     RDKit          3D

 14 13  0  0  0  0  0  0  0  0999 V2000
   -1.5123    0.6169   -0.2448 C   0  0  0  0  0  0  0  0  0  0  0  0
   -0.6985   -0.6770   -0.1213 C   0  0  2  0  0  0  0  0  0  0  0  0
   -0.5509   -1.2190   -1.3876 F   0  0  0  0  0  0  0  0  0  0  0  0
   -1.8456   -2.0986    1.0166 I   0  0  0  0  0  0  0  0  0  0  0  0
    0.7072   -0.4723    0.5089 C   0  0  2  0  0  0  0  0  0  0  0  0
    1.6052    0.4271   -0.3483 C   0  0  0  0  0  0  0  0  0  0  0  0
    1.3238   -1.7084    0.6093 F   0  0  0  0  0  0  0  0  0  0  0  0
    0.6328    0.3561    2.4989 I   0  0  0  0  0  0  0  0  0  0  0  0
   -2.5068    0.3900   -0.6839 H   0  0  0  0  0  0  0  0  0  0  0  0
   -1.0086    1.3406   -0.9177 H   0  0  0  0  0  0  0  0  0  0  0  0
   -1.6731    1.0869    0.7467 H   0  0  0  0  0  0  0  0  0  0  0  0
    1.6578    0.0527   -1.3924 H   0  0  0  0  0  0  0  0  0  0  0  0
    1.2340    1.4727   -0.3523 H   0  0  0  0  0  0  0  0  0  0  0  0
    2.6350    0.4322    0.0679 H   0  0  0  0  0  0  0  0  0  0  0  0
  1  2  1  0
  2  3  1  6
  2  4  1  0
  2  5  1  0
  5  6  1  0
  5  7  1  1
  5  8  1  0
  1  9  1  0
  1 10  1  0
  1 11  1  0
  6 12  1  0
  6 13  1  0
  6 14  1  0
M  END
>  <UniqueID>  (13) 
12

>  <SMILES>  (13) 
C[C@](F)(I)[C@](C)(F)I

>  <Energy>  (13) 
6.96360670300057

>  <Genealogy>  (13) 
C[C@](F)(I)[C@](C)(F)I (chirality)
C[C@](F)(I)[C@](C)(F)I (3D coordinates assigned)
C[C@](F)(I)[C@](C)(F)I (optimized conformer: 6.96360670300057 kcal/mol)

$$$$
chirality
     RDKit          3D

 14 13  0  0  0  0  0  0  0  0999 V2000
   -1.4084   -0.7026   -0.5154 C   0  0  0  0  0  0  0  0  0  0  0  0
   -0.7527    0.6172   -0.0917 C   0  0  1  0  0  0  0  0  0  0  0  0
   -0.5254    1.3808   -1.2248 F   0  0  0  0  0  0  0  0  0  0  0  0
   -2.1759    1.6706    1.1361 I   0  0  0  0  0  0  0  0  0  0  0  0
    0.5828    0.4050    0.6725 C   0  0  2  0  0  0  0  0  0  0  0  0
    1.5958   -0.4249   -0.1252 C   0  0  0  0  0  0  0  0  0  0  0  0
    0.3353   -0.2371    1.8746 F   0  0  0  0  0  0  0  0  0  0  0  0
    1.5167    2.2952    1.1171 I   0  0  0  0  0  0  0  0  0  0  0  0
   -0.8051   -1.2118   -1.2953 H   0  0  0  0  0  0  0  0  0  0  0  0
   -2.4105   -0.5040   -0.9509 H   0  0  0  0  0  0  0  0  0  0  0  0
   -1.5291   -1.3787    0.3575 H   0  0  0  0  0  0  0  0  0  0  0  0
    1.2516   -1.4747   -0.2310 H   0  0  0  0  0  0  0  0  0  0  0  0
    2.5689   -0.4492    0.4094 H   0  0  0  0  0  0  0  0  0  0  0  0
    1.7559    0.0141   -1.1328 H   0  0  0  0  0  0  0  0  0  0  0  0
  1  2  1  0
  2  3  1  6
  2  4  1  0
  2  5  1  0
  5  6  1  0
  5  7  1  1
  5  8  1  0
  1  9  1  0
  1 10  1  0
  1 11  1  0
  6 12  1  0
  6 13  1  0
  6 14  1  0
M  END
>  <UniqueID>  (14) 
13

>  <SMILES>  (14) 
C[C@@](F)(I)[C@](C)(F)I

>  <Energy>  (14) 
6.601868812042274

>  <Genealogy>  (14) 
C[C@@](F)(I)[C@](C)(F)I (chirality)
C[C@@](F)(I)[C@](C)(F)I (3D coordinates assigned)
C[C@@](F)(I)[C@](C)(F)I (optimized conformer: 6.601868812042274 kcal/mol)

$$$$
