EMPTY MOLECULE DESCRIBING GYPSUM PARAMETERS
     RDKit          2D

  0  0  0  0  0  0  0  0  0  0999 V2000
M  END
>  <source>  (1) 
sample_molecules.smi

>  <output_file>  (1) 
output.sdf

>  <separate_output_files>  (1) 
False

>  <num_processors>  (1) 
-1

>  <start_time>  (1) 
2018-11-28 12:25:17.725336

>  <end_time>  (1) 
2018-11-28 12:25:18.357850

>  <run_time>  (1) 
0:00:00.632514

>  <min_ph>  (1) 
6.4

>  <max_ph>  (1) 
8.4

>  <ph_std_dev>  (1) 
1.0

>  <thoroughness>  (1) 
3

>  <max_variants_per_compound>  (1) 
5

>  <second_embed>  (1) 
False

>  <2d_output_only>  (1) 
False

>  <skip_optimize_geometry>  (1) 
False

>  <skip_alternate_ring_conformations>  (1) 
False

>  <skip_adding_hydrogen>  (1) 
False

>  <skip_making_tautomers>  (1) 
False

>  <skip_ennumerate_chiral_mol>  (1) 
False

>  <skip_ennumerate_double_bonds>  (1) 
False

>  <multithread_mode>  (1) 
multithreading

>  <Parallelizer>  (1) 
<gypsum.parallelizer.Parallelizer object at 0x7f3f6e9e60b8>

$$$$
non-aromatic puckers
     RDKit          3D

 22 23  0  0  0  0  0  0  0  0999 V2000
    2.7437   -0.6515   -0.6308 C   0  0  0  0  0  0  0  0  0  0  0  0
    2.7972    0.6858   -0.2360 C   0  0  0  0  0  0  0  0  0  0  0  0
    1.6300    1.3503    0.1468 C   0  0  0  0  0  0  0  0  0  0  0  0
    0.3934    0.6850    0.1295 C   0  0  0  0  0  0  0  0  0  0  0  0
    0.3433   -0.6804   -0.2447 C   0  0  0  0  0  0  0  0  0  0  0  0
    1.5235   -1.3308   -0.6401 C   0  0  0  0  0  0  0  0  0  0  0  0
   -0.9669   -1.4274   -0.3342 C   0  0  0  0  0  0  0  0  0  0  0  0
   -2.0810   -0.7620    0.4792 C   0  0  0  0  0  0  0  0  0  0  0  0
   -2.1370    0.7359    0.1807 C   0  0  0  0  0  0  0  0  0  0  0  0
   -0.8358    1.4163    0.6163 C   0  0  0  0  0  0  0  0  0  0  0  0
    3.6491   -1.1625   -0.9321 H   0  0  0  0  0  0  0  0  0  0  0  0
    3.7451    1.2081   -0.2247 H   0  0  0  0  0  0  0  0  0  0  0  0
    1.6898    2.3853    0.4604 H   0  0  0  0  0  0  0  0  0  0  0  0
    1.4971   -2.3656   -0.9590 H   0  0  0  0  0  0  0  0  0  0  0  0
   -0.8344   -2.4694    0.0304 H   0  0  0  0  0  0  0  0  0  0  0  0
   -1.2733   -1.4747   -1.4018 H   0  0  0  0  0  0  0  0  0  0  0  0
   -3.0553   -1.2286    0.2180 H   0  0  0  0  0  0  0  0  0  0  0  0
   -1.9021   -0.9233    1.5653 H   0  0  0  0  0  0  0  0  0  0  0  0
   -2.9905    1.1912    0.7277 H   0  0  0  0  0  0  0  0  0  0  0  0
   -2.3002    0.8973   -0.9079 H   0  0  0  0  0  0  0  0  0  0  0  0
   -0.8335    2.4591    0.2305 H   0  0  0  0  0  0  0  0  0  0  0  0
   -0.8021    1.4619    1.7265 H   0  0  0  0  0  0  0  0  0  0  0  0
  1  2  2  0
  2  3  1  0
  3  4  2  0
  4  5  1  0
  5  6  2  0
  5  7  1  0
  7  8  1  0
  8  9  1  0
  9 10  1  0
  6  1  1  0
 10  4  1  0
  1 11  1  0
  2 12  1  0
  3 13  1  0
  6 14  1  0
  7 15  1  0
  7 16  1  0
  8 17  1  0
  8 18  1  0
  9 19  1  0
  9 20  1  0
 10 21  1  0
 10 22  1  0
M  END
>  <UniqueID>  (2) 
1

>  <SMILES>  (2) 
c1ccc2c(c1)CCCC2

>  <Energy>  (2) 
20.582423813914467

>  <Genealogy>  (2) 
c1ccc2c(c1)CCCC2 (3D coordinates assigned)
c1ccc2c(c1)CCCC2 (nonaromatic ring conformer: 20.582423813914467 kcal/mol)

$$$$
non-aromatic puckers
     RDKit          3D

 22 23  0  0  0  0  0  0  0  0999 V2000
    2.7504   -0.6628   -0.5887 C   0  0  0  0  0  0  0  0  0  0  0  0
    2.7905    0.6970   -0.2781 C   0  0  0  0  0  0  0  0  0  0  0  0
    1.6173    1.3717    0.0666 C   0  0  0  0  0  0  0  0  0  0  0  0
    0.3909    0.6892    0.1134 C   0  0  0  0  0  0  0  0  0  0  0  0
    0.3459   -0.6847   -0.2287 C   0  0  0  0  0  0  0  0  0  0  0  0
    1.5362   -1.3522   -0.5599 C   0  0  0  0  0  0  0  0  0  0  0  0
   -0.9364   -1.4791   -0.1409 C   0  0  0  0  0  0  0  0  0  0  0  0
   -2.1830   -0.5897   -0.1660 C   0  0  0  0  0  0  0  0  0  0  0  0
   -2.0350    0.5637    0.8259 C   0  0  0  0  0  0  0  0  0  0  0  0
   -0.8664    1.4679    0.4229 C   0  0  0  0  0  0  0  0  0  0  0  0
    3.6620   -1.1843   -0.8503 H   0  0  0  0  0  0  0  0  0  0  0  0
    3.7322    1.2300   -0.3064 H   0  0  0  0  0  0  0  0  0  0  0  0
    1.6637    2.4295    0.2950 H   0  0  0  0  0  0  0  0  0  0  0  0
    1.5233   -2.4098   -0.7935 H   0  0  0  0  0  0  0  0  0  0  0  0
   -0.9952   -2.1977   -0.9872 H   0  0  0  0  0  0  0  0  0  0  0  0
   -0.9246   -2.0638    0.8045 H   0  0  0  0  0  0  0  0  0  0  0  0
   -3.0735   -1.1979    0.1030 H   0  0  0  0  0  0  0  0  0  0  0  0
   -2.3379   -0.1872   -1.1915 H   0  0  0  0  0  0  0  0  0  0  0  0
   -1.8644    0.1613    1.8489 H   0  0  0  0  0  0  0  0  0  0  0  0
   -2.9724    1.1605    0.8428 H   0  0  0  0  0  0  0  0  0  0  0  0
   -1.1509    2.0510   -0.4798 H   0  0  0  0  0  0  0  0  0  0  0  0
   -0.6726    2.1874    1.2482 H   0  0  0  0  0  0  0  0  0  0  0  0
  1  2  2  0
  2  3  1  0
  3  4  2  0
  4  5  1  0
  5  6  2  0
  5  7  1  0
  7  8  1  0
  8  9  1  0
  9 10  1  0
  6  1  1  0
 10  4  1  0
  1 11  1  0
  2 12  1  0
  3 13  1  0
  6 14  1  0
  7 15  1  0
  7 16  1  0
  8 17  1  0
  8 18  1  0
  9 19  1  0
  9 20  1  0
 10 21  1  0
 10 22  1  0
M  END
>  <UniqueID>  (3) 
2

>  <SMILES>  (3) 
c1ccc2c(c1)CCCC2

>  <Energy>  (3) 
20.582423814083345

>  <Genealogy>  (3) 
c1ccc2c(c1)CCCC2 (3D coordinates assigned)
c1ccc2c(c1)CCCC2 (nonaromatic ring conformer: 20.582423814083345 kcal/mol)

$$$$
non-aromatic puckers
     RDKit          3D

 22 23  0  0  0  0  0  0  0  0999 V2000
    2.7410   -0.7073   -0.4499 C   0  0  0  0  0  0  0  0  0  0  0  0
    2.7929    0.6361   -0.0658 C   0  0  0  0  0  0  0  0  0  0  0  0
    1.6104    1.3534    0.1406 C   0  0  0  0  0  0  0  0  0  0  0  0
    0.3683    0.7211   -0.0207 C   0  0  0  0  0  0  0  0  0  0  0  0
    0.3170   -0.6276   -0.4097 C   0  0  0  0  0  0  0  0  0  0  0  0
    1.5063   -1.3389   -0.6282 C   0  0  0  0  0  0  0  0  0  0  0  0
   -1.0285   -1.2673   -0.6063 C   0  0  0  0  0  0  0  0  0  0  0  0
   -1.9622   -0.8779    0.5482 C   0  0  0  0  0  0  0  0  0  0  0  0
   -2.0130    0.6466    0.8307 C   0  0  0  0  0  0  0  0  0  0  0  0
   -0.9218    1.4828    0.1276 C   0  0  0  0  0  0  0  0  0  0  0  0
    3.6582   -1.2576   -0.6152 H   0  0  0  0  0  0  0  0  0  0  0  0
    3.7503    1.1241    0.0635 H   0  0  0  0  0  0  0  0  0  0  0  0
    1.6634    2.3981    0.4206 H   0  0  0  0  0  0  0  0  0  0  0  0
    1.4783   -2.3771   -0.9344 H   0  0  0  0  0  0  0  0  0  0  0  0
   -1.4597   -0.9188   -1.5696 H   0  0  0  0  0  0  0  0  0  0  0  0
   -0.9409   -2.3751   -0.6455 H   0  0  0  0  0  0  0  0  0  0  0  0
   -1.6153   -1.4015    1.4667 H   0  0  0  0  0  0  0  0  0  0  0  0
   -2.9861   -1.2508    0.3290 H   0  0  0  0  0  0  0  0  0  0  0  0
   -1.9279    0.8042    1.9285 H   0  0  0  0  0  0  0  0  0  0  0  0
   -3.0070    1.0426    0.5285 H   0  0  0  0  0  0  0  0  0  0  0  0
   -1.2757    1.7611   -0.8887 H   0  0  0  0  0  0  0  0  0  0  0  0
   -0.7624    2.4245    0.6971 H   0  0  0  0  0  0  0  0  0  0  0  0
  1  2  2  0
  2  3  1  0
  3  4  2  0
  4  5  1  0
  5  6  2  0
  5  7  1  0
  7  8  1  0
  8  9  1  0
  9 10  1  0
  6  1  1  0
 10  4  1  0
  1 11  1  0
  2 12  1  0
  3 13  1  0
  6 14  1  0
  7 15  1  0
  7 16  1  0
  8 17  1  0
  8 18  1  0
  9 19  1  0
  9 20  1  0
 10 21  1  0
 10 22  1  0
M  END
>  <UniqueID>  (4) 
3

>  <SMILES>  (4) 
c1ccc2c(c1)CCCC2

>  <Energy>  (4) 
25.819761054203084

>  <Genealogy>  (4) 
c1ccc2c(c1)CCCC2 (3D coordinates assigned)
c1ccc2c(c1)CCCC2 (nonaromatic ring conformer: 25.819761054203084 kcal/mol)

$$$$
various pHs
     RDKit          3D

 21 21  0  0  0  0  0  0  0  0999 V2000
   -1.5299    0.5098   -1.2098 N   0  0  0  0  0  0  0  0  0  0  0  0
   -1.4568   -0.4808   -0.1265 C   0  0  1  0  0  0  0  0  0  0  0  0
   -0.4824   -0.0191    0.9809 C   0  0  0  0  0  0  0  0  0  0  0  0
    0.9313    0.0720    0.4847 C   0  0  0  0  0  0  0  0  0  0  0  0
    1.7184   -0.9754    0.0516 C   0  0  0  0  0  0  0  0  0  0  0  0
    2.9175   -0.4785   -0.3018 N   0  0  0  0  0  0  0  0  0  0  0  0
    2.8438    0.8482   -0.0787 C   0  0  0  0  0  0  0  0  0  0  0  0
    1.6409    1.2129    0.4042 N   0  0  0  0  0  0  0  0  0  0  0  0
   -2.8379   -0.7378    0.4288 C   0  0  0  0  0  0  0  0  0  0  0  0
   -3.7146   -1.2690   -0.3026 O   0  0  0  0  0  0  0  0  0  0  0  0
   -3.1629   -0.3981    1.7380 O   0  0  0  0  0  0  0  0  0  0  0  0
   -1.8656    1.4300   -0.8417 H   0  0  0  0  0  0  0  0  0  0  0  0
   -2.1860    0.1789   -1.9544 H   0  0  0  0  0  0  0  0  0  0  0  0
   -0.5897    0.6368   -1.6492 H   0  0  0  0  0  0  0  0  0  0  0  0
   -1.0838   -1.4444   -0.5417 H   0  0  0  0  0  0  0  0  0  0  0  0
   -0.5027   -0.7416    1.8258 H   0  0  0  0  0  0  0  0  0  0  0  0
   -0.8022    0.9717    1.3718 H   0  0  0  0  0  0  0  0  0  0  0  0
    1.4418   -2.0203   -0.0016 H   0  0  0  0  0  0  0  0  0  0  0  0
    3.7360   -1.0109   -0.6709 H   0  0  0  0  0  0  0  0  0  0  0  0
    3.6558    1.5390   -0.2648 H   0  0  0  0  0  0  0  0  0  0  0  0
    1.3292    2.1766    0.6579 H   0  0  0  0  0  0  0  0  0  0  0  0
  1  2  1  0
  2  3  1  0
  3  4  1  0
  4  5  2  0
  5  6  1  0
  6  7  1  0
  7  8  2  0
  2  9  1  0
  9 10  2  0
  9 11  1  0
  8  4  1  0
  1 12  1  0
  1 13  1  0
  1 14  1  0
  2 15  1  6
  3 16  1  0
  3 17  1  0
  5 18  1  0
  6 19  1  0
  7 20  1  0
  8 21  1  0
M  CHG  3   1   1   8   1  11  -1
M  END
>  <UniqueID>  (5) 
4

>  <SMILES>  (5) 
[NH3+][C@@H](Cc1c[nH]c[nH+]1)C(=O)[O-]

>  <Energy>  (5) 
44.902042324028066

>  <Genealogy>  (5) 
[NH3+][C@@H](Cc1c[nH]c[nH+]1)C(=O)[O-] (protonated)
[NH3+][C@@H](Cc1c[nH]c[nH+]1)C(=O)[O-] (3D coordinates assigned)
[NH3+][C@@H](Cc1c[nH]c[nH+]1)C(=O)[O-] (optimized conformer: 44.902042324028066 kcal/mol)

$$$$
various pHs
     RDKit          3D

 20 20  0  0  0  0  0  0  0  0999 V2000
   -1.3331   -1.1507    0.7865 N   0  0  0  0  0  0  0  0  0  0  0  0
   -1.3036    0.2312    0.2819 C   0  0  1  0  0  0  0  0  0  0  0  0
   -0.2680    0.3862   -0.8513 C   0  0  0  0  0  0  0  0  0  0  0  0
    1.1310    0.1375   -0.3687 C   0  0  0  0  0  0  0  0  0  0  0  0
    1.9714   -0.8737   -0.7768 C   0  0  0  0  0  0  0  0  0  0  0  0
    3.1445   -0.7628   -0.1219 N   0  0  0  0  0  0  0  0  0  0  0  0
    2.9855    0.3203    0.6693 C   0  0  0  0  0  0  0  0  0  0  0  0
    1.7724    0.8890    0.5396 N   0  0  0  0  0  0  0  0  0  0  0  0
   -2.6632    0.6631   -0.2130 C   0  0  0  0  0  0  0  0  0  0  0  0
   -3.6138   -0.1588   -0.3069 O   0  0  0  0  0  0  0  0  0  0  0  0
   -2.8752    1.9896   -0.5681 O   0  0  0  0  0  0  0  0  0  0  0  0
   -2.0597   -1.2417    1.5337 H   0  0  0  0  0  0  0  0  0  0  0  0
   -0.4103   -1.3982    1.2112 H   0  0  0  0  0  0  0  0  0  0  0  0
   -1.5449   -1.8229    0.0130 H   0  0  0  0  0  0  0  0  0  0  0  0
   -1.0282    0.9098    1.1202 H   0  0  0  0  0  0  0  0  0  0  0  0
   -0.5115   -0.3169   -1.6783 H   0  0  0  0  0  0  0  0  0  0  0  0
   -0.3075    1.4180   -1.2629 H   0  0  0  0  0  0  0  0  0  0  0  0
    1.7472   -1.6445   -1.5022 H   0  0  0  0  0  0  0  0  0  0  0  0
    3.7532    0.6916    1.3351 H   0  0  0  0  0  0  0  0  0  0  0  0
    1.4139    1.7339    1.0374 H   0  0  0  0  0  0  0  0  0  0  0  0
  1  2  1  0
  2  3  1  0
  3  4  1  0
  4  5  2  0
  5  6  1  0
  6  7  2  0
  7  8  1  0
  2  9  1  0
  9 10  2  0
  9 11  1  0
  8  4  1  0
  1 12  1  0
  1 13  1  0
  1 14  1  0
  2 15  1  1
  3 16  1  0
  3 17  1  0
  5 18  1  0
  7 19  1  0
  8 20  1  0
M  CHG  2   1   1  11  -1
M  END
>  <UniqueID>  (6) 
5

>  <SMILES>  (6) 
[NH3+][C@@H](Cc1cnc[nH]1)C(=O)[O-]

>  <Energy>  (6) 
42.76792233665687

>  <Genealogy>  (6) 
[NH3+][C@@H](Cc1c[nH]cn1)C(=O)[O-] (protonated)
[NH3+][C@@H](Cc1cnc[nH]1)C(=O)[O-] (tautomer)
[NH3+][C@@H](Cc1cnc[nH]1)C(=O)[O-] (3D coordinates assigned)
[NH3+][C@@H](Cc1cnc[nH]1)C(=O)[O-] (optimized conformer: 42.76792233665687 kcal/mol)

$$$$
various pHs
     RDKit          3D

 19 19  0  0  0  0  0  0  0  0999 V2000
   -1.4791   -1.4806   -0.1743 N   0  0  0  0  0  0  0  0  0  0  0  0
   -1.4906   -0.1487    0.4364 C   0  0  1  0  0  0  0  0  0  0  0  0
   -0.4567    0.7616   -0.2605 C   0  0  0  0  0  0  0  0  0  0  0  0
    0.9604    0.2825   -0.0997 C   0  0  0  0  0  0  0  0  0  0  0  0
    2.0676    0.8905   -0.6479 C   0  0  0  0  0  0  0  0  0  0  0  0
    3.1493    0.1872   -0.2822 N   0  0  0  0  0  0  0  0  0  0  0  0
    2.6836   -0.8237    0.4751 C   0  0  0  0  0  0  0  0  0  0  0  0
    1.3412   -0.7993    0.6125 N   0  0  0  0  0  0  0  0  0  0  0  0
   -2.8853    0.4323    0.3959 C   0  0  0  0  0  0  0  0  0  0  0  0
   -3.1414    1.4760   -0.2627 O   0  0  0  0  0  0  0  0  0  0  0  0
   -3.9076   -0.1952    1.0968 O   0  0  0  0  0  0  0  0  0  0  0  0
   -1.8858   -1.4237   -1.1371 H   0  0  0  0  0  0  0  0  0  0  0  0
   -2.0899   -2.1167    0.3884 H   0  0  0  0  0  0  0  0  0  0  0  0
   -1.2027   -0.2412    1.5073 H   0  0  0  0  0  0  0  0  0  0  0  0
   -0.6898    0.8268   -1.3459 H   0  0  0  0  0  0  0  0  0  0  0  0
   -0.5199    1.7855    0.1683 H   0  0  0  0  0  0  0  0  0  0  0  0
    2.0857    1.7788   -1.2659 H   0  0  0  0  0  0  0  0  0  0  0  0
    4.1438    0.3833   -0.5315 H   0  0  0  0  0  0  0  0  0  0  0  0
    3.3170   -1.5754    0.9272 H   0  0  0  0  0  0  0  0  0  0  0  0
  1  2  1  0
  2  3  1  0
  3  4  1  0
  4  5  2  0
  5  6  1  0
  6  7  1  0
  7  8  2  0
  2  9  1  0
  9 10  2  0
  9 11  1  0
  8  4  1  0
  1 12  1  0
  1 13  1  0
  2 14  1  1
  3 15  1  0
  3 16  1  0
  5 17  1  0
  6 18  1  0
  7 19  1  0
M  CHG  1  11  -1
M  END
>  <UniqueID>  (7) 
6

>  <SMILES>  (7) 
N[C@@H](Cc1c[nH]cn1)C(=O)[O-]

>  <Energy>  (7) 
43.01355591421645

>  <Genealogy>  (7) 
N[C@@H](Cc1c[nH]cn1)C(=O)[O-] (protonated)
N[C@@H](Cc1c[nH]cn1)C(=O)[O-] (3D coordinates assigned)
N[C@@H](Cc1c[nH]cn1)C(=O)[O-] (optimized conformer: 43.01355591421645 kcal/mol)

$$$$
various pHs
     RDKit          3D

 19 19  0  0  0  0  0  0  0  0999 V2000
    1.3111    1.2640   -0.8923 N   0  0  0  0  0  0  0  0  0  0  0  0
    1.3330    0.3652    0.2662 C   0  0  1  0  0  0  0  0  0  0  0  0
    0.4724   -0.8840   -0.0055 C   0  0  0  0  0  0  0  0  0  0  0  0
   -0.9846   -0.5442   -0.1271 C   0  0  0  0  0  0  0  0  0  0  0  0
   -1.7726   -0.7013   -1.2450 C   0  0  0  0  0  0  0  0  0  0  0  0
   -3.0257   -0.2931   -0.9615 N   0  0  0  0  0  0  0  0  0  0  0  0
   -2.9659    0.1008    0.3291 C   0  0  0  0  0  0  0  0  0  0  0  0
   -1.7386   -0.0419    0.8629 N   0  0  0  0  0  0  0  0  0  0  0  0
    2.7470   -0.0551    0.5735 C   0  0  0  0  0  0  0  0  0  0  0  0
    2.9974   -0.6865    1.6342 O   0  0  0  0  0  0  0  0  0  0  0  0
    3.7861    0.2466   -0.2999 O   0  0  0  0  0  0  0  0  0  0  0  0
    0.3354    1.6155   -1.0260 H   0  0  0  0  0  0  0  0  0  0  0  0
    1.8805    2.1112   -0.6616 H   0  0  0  0  0  0  0  0  0  0  0  0
    0.9364    0.9060    1.1556 H   0  0  0  0  0  0  0  0  0  0  0  0
    0.5827   -1.6115    0.8279 H   0  0  0  0  0  0  0  0  0  0  0  0
    0.8226   -1.3797   -0.9379 H   0  0  0  0  0  0  0  0  0  0  0  0
   -1.4583   -1.0862   -2.2061 H   0  0  0  0  0  0  0  0  0  0  0  0
   -3.8158    0.4879    0.8755 H   0  0  0  0  0  0  0  0  0  0  0  0
   -1.4431    0.1864    1.8380 H   0  0  0  0  0  0  0  0  0  0  0  0
  1  2  1  0
  2  3  1  0
  3  4  1  0
  4  5  2  0
  5  6  1  0
  6  7  2  0
  7  8  1  0
  2  9  1  0
  9 10  2  0
  9 11  1  0
  8  4  1  0
  1 12  1  0
  1 13  1  0
  2 14  1  1
  3 15  1  0
  3 16  1  0
  5 17  1  0
  7 18  1  0
  8 19  1  0
M  CHG  1  11  -1
M  END
>  <UniqueID>  (8) 
7

>  <SMILES>  (8) 
N[C@@H](Cc1cnc[nH]1)C(=O)[O-]

>  <Energy>  (8) 
41.20984250760624

>  <Genealogy>  (8) 
N[C@@H](Cc1c[nH]cn1)C(=O)[O-] (protonated)
N[C@@H](Cc1cnc[nH]1)C(=O)[O-] (tautomer)
N[C@@H](Cc1cnc[nH]1)C(=O)[O-] (3D coordinates assigned)
N[C@@H](Cc1cnc[nH]1)C(=O)[O-] (optimized conformer: 41.20984250760624 kcal/mol)

$$$$
various pHs
     RDKit          3D

 20 20  0  0  0  0  0  0  0  0999 V2000
   -1.8932   -0.7106   -0.8467 N   0  0  0  0  0  0  0  0  0  0  0  0
   -1.7572   -0.0896    0.4741 C   0  0  1  0  0  0  0  0  0  0  0  0
   -0.5080   -0.6227    1.2045 C   0  0  0  0  0  0  0  0  0  0  0  0
    0.7723   -0.2795    0.4943 C   0  0  0  0  0  0  0  0  0  0  0  0
    1.7296    0.6148    0.9265 C   0  0  0  0  0  0  0  0  0  0  0  0
    2.7274    0.6281    0.0244 N   0  0  0  0  0  0  0  0  0  0  0  0
    2.3692   -0.2526   -0.9300 C   0  0  0  0  0  0  0  0  0  0  0  0
    1.1787   -0.8249   -0.6679 N   0  0  0  0  0  0  0  0  0  0  0  0
   -1.7116    1.4143    0.3649 C   0  0  0  0  0  0  0  0  0  0  0  0
   -1.6444    1.9812   -0.7585 O   0  0  0  0  0  0  0  0  0  0  0  0
   -1.7395    2.1890    1.5179 O   0  0  0  0  0  0  0  0  0  0  0  0
   -2.8041   -0.4051   -1.2613 H   0  0  0  0  0  0  0  0  0  0  0  0
   -1.9730   -1.7457   -0.7175 H   0  0  0  0  0  0  0  0  0  0  0  0
   -2.6500   -0.3551    1.0841 H   0  0  0  0  0  0  0  0  0  0  0  0
   -0.5757   -1.7268    1.3101 H   0  0  0  0  0  0  0  0  0  0  0  0
   -0.4838   -0.2010    2.2334 H   0  0  0  0  0  0  0  0  0  0  0  0
    1.7033    1.2125    1.8283 H   0  0  0  0  0  0  0  0  0  0  0  0
    3.6004    1.1994    0.0591 H   0  0  0  0  0  0  0  0  0  0  0  0
    2.9701   -0.4782   -1.8013 H   0  0  0  0  0  0  0  0  0  0  0  0
    0.6894   -1.5473   -1.2409 H   0  0  0  0  0  0  0  0  0  0  0  0
  1  2  1  0
  2  3  1  0
  3  4  1  0
  4  5  2  0
  5  6  1  0
  6  7  1  0
  7  8  2  0
  2  9  1  0
  9 10  2  0
  9 11  1  0
  8  4  1  0
  1 12  1  0
  1 13  1  0
  2 14  1  1
  3 15  1  0
  3 16  1  0
  5 17  1  0
  6 18  1  0
  7 19  1  0
  8 20  1  0
M  CHG  2   8   1  11  -1
M  END
>  <UniqueID>  (9) 
8

>  <SMILES>  (9) 
N[C@@H](Cc1c[nH]c[nH+]1)C(=O)[O-]

>  <Energy>  (9) 
43.66514778177537

>  <Genealogy>  (9) 
N[C@@H](Cc1c[nH]c[nH+]1)C(=O)[O-] (protonated)
N[C@@H](Cc1c[nH]c[nH+]1)C(=O)[O-] (3D coordinates assigned)
N[C@@H](Cc1c[nH]c[nH+]1)C(=O)[O-] (optimized conformer: 43.66514778177537 kcal/mol)

$$$$
tautomers
     RDKit          3D

 12 12  0  0  0  0  0  0  0  0999 V2000
    2.4955   -0.6881    0.0757 O   0  0  0  0  0  0  0  0  0  0  0  0
    1.1266   -0.4370    0.0385 C   0  0  0  0  0  0  0  0  0  0  0  0
    0.6415    0.8766   -0.0164 C   0  0  0  0  0  0  0  0  0  0  0  0
   -0.7375    1.0949   -0.0527 C   0  0  0  0  0  0  0  0  0  0  0  0
   -1.6134    0.0077   -0.0341 C   0  0  0  0  0  0  0  0  0  0  0  0
   -1.0930   -1.2877    0.0209 C   0  0  0  0  0  0  0  0  0  0  0  0
    0.2532   -1.4802    0.0556 N   0  0  0  0  0  0  0  0  0  0  0  0
    3.1724    0.0660    0.0643 H   0  0  0  0  0  0  0  0  0  0  0  0
    1.3237    1.7170   -0.0306 H   0  0  0  0  0  0  0  0  0  0  0  0
   -1.1263    2.1041   -0.0952 H   0  0  0  0  0  0  0  0  0  0  0  0
   -2.6836    0.1667   -0.0620 H   0  0  0  0  0  0  0  0  0  0  0  0
   -1.7590   -2.1400    0.0359 H   0  0  0  0  0  0  0  0  0  0  0  0
  1  2  1  0
  2  3  2  0
  3  4  1  0
  4  5  2  0
  5  6  1  0
  6  7  2  0
  7  2  1  0
  1  8  1  0
  3  9  1  0
  4 10  1  0
  5 11  1  0
  6 12  1  0
M  END
>  <UniqueID>  (10) 
9

>  <SMILES>  (10) 
Oc1ccccn1

>  <Energy>  (10) 
10.98755241220246

>  <Genealogy>  (10) 
Oc1ccccn1 (tautomer)
Oc1ccccn1 (3D coordinates assigned)
Oc1ccccn1 (optimized conformer: 10.98755241220246 kcal/mol)

$$$$
tautomers
     RDKit          3D

 12 12  0  0  0  0  0  0  0  0999 V2000
    2.3238   -1.2241   -0.1000 O   0  0  0  0  0  0  0  0  0  0  0  0
    1.2099   -0.6374   -0.0521 C   0  0  0  0  0  0  0  0  0  0  0  0
    0.0275   -1.3853   -0.0416 C   0  0  0  0  0  0  0  0  0  0  0  0
   -1.2000   -0.7222    0.0117 C   0  0  0  0  0  0  0  0  0  0  0  0
   -1.2337    0.6724    0.0538 C   0  0  0  0  0  0  0  0  0  0  0  0
   -0.0327    1.3861    0.0417 C   0  0  0  0  0  0  0  0  0  0  0  0
    1.1564    0.7244   -0.0105 N   0  0  0  0  0  0  0  0  0  0  0  0
    0.0582   -2.4674   -0.0743 H   0  0  0  0  0  0  0  0  0  0  0  0
   -2.1226   -1.2880    0.0205 H   0  0  0  0  0  0  0  0  0  0  0  0
   -2.1804    1.1955    0.0952 H   0  0  0  0  0  0  0  0  0  0  0  0
   -0.0495    2.4682    0.0741 H   0  0  0  0  0  0  0  0  0  0  0  0
    2.0430    1.2777   -0.0186 H   0  0  0  0  0  0  0  0  0  0  0  0
  1  2  2  0
  2  3  1  0
  3  4  2  0
  4  5  1  0
  5  6  2  0
  6  7  1  0
  7  2  1  0
  3  8  1  0
  4  9  1  0
  5 10  1  0
  6 11  1  0
  7 12  1  0
M  END
>  <UniqueID>  (11) 
10

>  <SMILES>  (11) 
O=c1cccc[nH]1

>  <Energy>  (11) 
10.989887201296193

>  <Genealogy>  (11) 
O=c1cccc[nH]1 (3D coordinates assigned)
O=c1cccc[nH]1 (optimized conformer: 10.989887201296193 kcal/mol)

$$$$
double bonds
     RDKit          3D

  9  8  0  0  0  0  0  0  0  0999 V2000
   -1.1651    0.0012   -0.0201 C   0  0  0  0  0  0  0  0  0  0  0  0
    0.2378   -0.5341   -0.0208 C   0  0  0  0  0  0  0  0  0  0  0  0
    0.4724   -2.2785   -0.0982 Cl  0  0  0  0  0  0  0  0  0  0  0  0
    1.3087    0.2756    0.0355 C   0  0  0  0  0  0  0  0  0  0  0  0
    2.5598   -0.2565    0.0323 F   0  0  0  0  0  0  0  0  0  0  0  0
    1.1572    2.3905    0.1316 I   0  0  0  0  0  0  0  0  0  0  0  0
   -1.3214    0.6592   -0.9007 H   0  0  0  0  0  0  0  0  0  0  0  0
   -1.8967   -0.8320   -0.0716 H   0  0  0  0  0  0  0  0  0  0  0  0
   -1.3527    0.5746    0.9121 H   0  0  0  0  0  0  0  0  0  0  0  0
  1  2  1  0
  2  3  1  0
  2  4  2  0
  4  5  1  0
  4  6  1  0
  1  7  1  0
  1  8  1  0
  1  9  1  0
M  END
>  <UniqueID>  (12) 
11

>  <SMILES>  (12) 
C/C(Cl)=C(/F)I

>  <Energy>  (12) 
2.964009357079587

>  <Genealogy>  (12) 
C/C(Cl)=C(/F)I (cis-trans isomerization)
C/C(Cl)=C(/F)I (3D coordinates assigned)
C/C(Cl)=C(/F)I (optimized conformer: 2.964009357079587 kcal/mol)

$$$$
chirality
     RDKit          3D

 14 13  0  0  0  0  0  0  0  0999 V2000
    1.5069   -0.7002   -0.3456 C   0  0  0  0  0  0  0  0  0  0  0  0
    0.7610    0.2754    0.5720 C   0  0  2  0  0  0  0  0  0  0  0  0
    1.5992    1.3517    0.8109 F   0  0  0  0  0  0  0  0  0  0  0  0
    0.4374   -0.7015    2.4674 I   0  0  0  0  0  0  0  0  0  0  0  0
   -0.5485    0.8092   -0.0723 C   0  0  2  0  0  0  0  0  0  0  0  0
   -1.5901   -0.2827   -0.3453 C   0  0  0  0  0  0  0  0  0  0  0  0
   -0.2415    1.4257   -1.2744 F   0  0  0  0  0  0  0  0  0  0  0  0
   -1.4506    2.3177    1.1694 I   0  0  0  0  0  0  0  0  0  0  0  0
    1.6784   -0.2491   -1.3457 H   0  0  0  0  0  0  0  0  0  0  0  0
    2.4962   -0.9457    0.0955 H   0  0  0  0  0  0  0  0  0  0  0  0
    0.9416   -1.6477   -0.4631 H   0  0  0  0  0  0  0  0  0  0  0  0
   -1.8837   -0.8011    0.5901 H   0  0  0  0  0  0  0  0  0  0  0  0
   -2.5010    0.1744   -0.7863 H   0  0  0  0  0  0  0  0  0  0  0  0
   -1.2053   -1.0263   -1.0728 H   0  0  0  0  0  0  0  0  0  0  0  0
  1  2  1  0
  2  3  1  1
  2  4  1  0
  2  5  1  0
  5  6  1  0
  5  7  1  6
  5  8  1  0
  1  9  1  0
  1 10  1  0
  1 11  1  0
  6 12  1  0
  6 13  1  0
  6 14  1  0
M  END
>  <UniqueID>  (13) 
12

>  <SMILES>  (13) 
C[C@](F)(I)[C@](C)(F)I

>  <Energy>  (13) 
6.963606697954884

>  <Genealogy>  (13) 
C[C@](F)(I)[C@](C)(F)I (chirality)
C[C@](F)(I)[C@](C)(F)I (3D coordinates assigned)
C[C@](F)(I)[C@](C)(F)I (optimized conformer: 6.963606697954884 kcal/mol)

$$$$
chirality
     RDKit          3D

 14 13  0  0  0  0  0  0  0  0999 V2000
    1.6154   -0.2459    0.1455 C   0  0  0  0  0  0  0  0  0  0  0  0
    0.5174    0.0735   -0.8764 C   0  0  1  0  0  0  0  0  0  0  0  0
    0.9980    1.0420   -1.7417 F   0  0  0  0  0  0  0  0  0  0  0  0
    0.1621   -1.6851   -2.0651 I   0  0  0  0  0  0  0  0  0  0  0  0
   -0.7972    0.5924   -0.2338 C   0  0  2  0  0  0  0  0  0  0  0  0
   -1.3674   -0.3441    0.8384 C   0  0  0  0  0  0  0  0  0  0  0  0
   -1.7472    0.7407   -1.2305 F   0  0  0  0  0  0  0  0  0  0  0  0
   -0.5211    2.5394    0.6408 I   0  0  0  0  0  0  0  0  0  0  0  0
    2.5568   -0.4994   -0.3864 H   0  0  0  0  0  0  0  0  0  0  0  0
    1.3326   -1.1171    0.7722 H   0  0  0  0  0  0  0  0  0  0  0  0
    1.8159    0.6262    0.8010 H   0  0  0  0  0  0  0  0  0  0  0  0
   -0.7029   -0.3815    1.7265 H   0  0  0  0  0  0  0  0  0  0  0  0
   -2.3593    0.0295    1.1698 H   0  0  0  0  0  0  0  0  0  0  0  0
   -1.5031   -1.3705    0.4400 H   0  0  0  0  0  0  0  0  0  0  0  0
  1  2  1  0
  2  3  1  6
  2  4  1  0
  2  5  1  0
  5  6  1  0
  5  7  1  6
  5  8  1  0
  1  9  1  0
  1 10  1  0
  1 11  1  0
  6 12  1  0
  6 13  1  0
  6 14  1  0
M  END
>  <UniqueID>  (14) 
13

>  <SMILES>  (14) 
C[C@@](F)(I)[C@](C)(F)I

>  <Energy>  (14) 
6.557189001223229

>  <Genealogy>  (14) 
C[C@@](F)(I)[C@](C)(F)I (chirality)
C[C@@](F)(I)[C@](C)(F)I (3D coordinates assigned)
C[C@@](F)(I)[C@](C)(F)I (optimized conformer: 6.557189001223229 kcal/mol)

$$$$
